iss2_4
csCF1100/12201114322D

  4  3  0  0  0  0  0  0  0  0999 V2000
    5.6984  -60.3019    0.0000 C   0  0  0  0  0  0  0  0  0  0  0  0
    6.7779  -59.4491    0.0000 Cl  0  0  0  0  0  0  0  0  0  0  0  0
    4.5970  -61.3294    0.0000 Cl  0  0  0  0  0  0  0  0  0  0  0  0
    6.6540  -61.3020    0.0000 Cl  0  0  0  0  0  0  0  0  0  0  0  0
  1  2  1  0        0
  1  3  1  0        0
  1  4  1  0        0
M  END
>  <MolfileName> (1)
iss2_4

>  <cdk_Title> (1)
iss2_4

>  <Substance ID> (1)
iss2_4

>  <Molecular_Weight> (1)
119.4

>  <FW_iss2> (1)
119.4

>  <Parent_Atom_Count> (1)
4.0

>  <Parent_Molecular_Weight> (1)
119.4

>  <Rotatable_Bonds> (1)
0.0

>  <Hydrogen_Bond_Acceptors> (1)
0.0

>  <Polar_Surface_Area> (1)
0.0

>  <Lipinski_Score> (1)
0.0

>  <Canc_iss2> (1)
3

>  <ALogP> (1)
1.99

>  <Hydrogen_Bond_Donors> (1)
0.0

>  <ChemName_iss2> (1)
Chloroform

>  <SMILES_iss2> (1)
ClC(Cl)Cl

>  <SAL_iss2> (1)
1

>  <CAS_iss2> (1)
67-66-3

>  <Formula_iss2> (1)
CHCl3

>  <Structural Alert for genotoxic carcinogenicity> (1)
YES

>  <Structural Alert for nongenotoxic carcinogenicity> (1)
YES

>  <SA42_nogen> (1)
NO

>  <SA47_nogen> (1)
NO

>  <SA44_nogen> (1)
NO

>  <SA41_nogen> (1)
NO

>  <SA49_nogen> (1)
NO

>  <SA46_nogen> (1)
NO

>  <SA43_nogen> (1)
NO

>  <SA40_nogen> (1)
NO

>  <SA48_nogen> (1)
NO

>  <SA45_nogen> (1)
NO

>  <SA38_gen> (1)
NO

>  <SA50_nogen> (1)
NO

>  <SA55_nogen> (1)
NO

>  <SA52_nogen> (1)
NO

>  <SA54_nogen> (1)
NO

>  <SA51_nogen> (1)
NO

>  <SA56_nogen> (1)
YES

>  <SA53_nogen> (1)
NO

>  <SA39_gen_and_nogen> (1)
NO

>  <SA37_gen> (1)
NO

$$$$
iss2_62
csCF1100/12201114322D

  7  6  0  0  0  0  0  0  0  0999 V2000
    0.0000   -1.3255    0.0000 Cl  0  0  0  0  0  0  0  0  0  0  0  0
    1.3255   -1.3255    0.0000 C   0  0  0  0  0  0  0  0  0  0  0  0
    2.6509   -1.3255    0.0000 C   0  0  0  0  0  0  0  0  0  0  0  0
    3.3216   -0.1757    0.0000 Cl  0  0  0  0  0  0  0  0  0  0  0  0
    1.3255   -2.6669    0.0000 Cl  0  0  0  0  0  0  0  0  0  0  0  0
    3.3216   -2.4752    0.0000 Cl  0  0  0  0  0  0  0  0  0  0  0  0
    1.3255    0.0000    0.0000 Cl  0  0  0  0  0  0  0  0  0  0  0  0
  1  2  1  0        0
  2  3  1  0        0
  2  5  1  0        0
  2  7  1  0        0
  3  4  1  0        0
  3  6  1  0        0
M  END
>  <MolfileName> (2)
iss2_62

>  <cdk_Title> (2)
iss2_62

>  <Substance ID> (2)
iss2_62

>  <Molecular_Weight> (2)
202.3

>  <FW_iss2> (2)
202.3

>  <Parent_Atom_Count> (2)
7.0

>  <Parent_Molecular_Weight> (2)
202.3

>  <Rotatable_Bonds> (2)
1.0

>  <Hydrogen_Bond_Acceptors> (2)
0.0

>  <Polar_Surface_Area> (2)
0.0

>  <Lipinski_Score> (2)
0.0

>  <Canc_iss2> (2)
3

>  <ALogP> (2)
3.16

>  <Hydrogen_Bond_Donors> (2)
0.0

>  <ChemName_iss2> (2)
Pentachloroethane

>  <SMILES_iss2> (2)
ClC(C(Cl)Cl)(Cl)Cl

>  <SAL_iss2> (2)
1

>  <CAS_iss2> (2)
76-01-7

>  <Formula_iss2> (2)
C2HCl5

>  <Structural Alert for genotoxic carcinogenicity> (2)
YES

>  <Structural Alert for nongenotoxic carcinogenicity> (2)
YES

>  <SA42_nogen> (2)
NO

>  <SA47_nogen> (2)
NO

>  <SA44_nogen> (2)
NO

>  <SA41_nogen> (2)
NO

>  <SA49_nogen> (2)
NO

>  <SA46_nogen> (2)
NO

>  <SA43_nogen> (2)
NO

>  <SA40_nogen> (2)
NO

>  <SA48_nogen> (2)
NO

>  <SA45_nogen> (2)
NO

>  <SA38_gen> (2)
NO

>  <SA50_nogen> (2)
NO

>  <SA55_nogen> (2)
NO

>  <SA52_nogen> (2)
NO

>  <SA54_nogen> (2)
NO

>  <SA51_nogen> (2)
NO

>  <SA56_nogen> (2)
YES

>  <SA53_nogen> (2)
NO

>  <SA39_gen_and_nogen> (2)
NO

>  <SA37_gen> (2)
NO

$$$$
iss2_66
csCF1100/12201114322D

  6  5  0  0  0  0  0  0  0  0999 V2000
    0.0000   -1.3259    0.0000 Cl  0  0  0  0  0  0  0  0  0  0  0  0
    1.3259   -1.3259    0.0000 C   0  0  0  0  0  0  0  0  0  0  0  0
    2.6648   -1.3259    0.0000 C   0  0  0  0  0  0  0  0  0  0  0  0
    1.3259    0.0000    0.0000 Cl  0  0  0  0  0  0  0  0  0  0  0  0
    1.3259   -2.6518    0.0000 Cl  0  0  0  0  0  0  0  0  0  0  0  0
    3.3278   -2.4828    0.0000 Cl  0  0  0  0  0  0  0  0  0  0  0  0
  1  2  1  0        0
  2  3  1  0        0
  2  4  1  0        0
  2  5  1  0        0
  3  6  1  0        0
M  END
>  <MolfileName> (3)
iss2_66

>  <cdk_Title> (3)
iss2_66

>  <Substance ID> (3)
iss2_66

>  <Molecular_Weight> (3)
167.8

>  <FW_iss2> (3)
167.8

>  <Parent_Atom_Count> (3)
6.0

>  <Parent_Molecular_Weight> (3)
167.8

>  <Rotatable_Bonds> (3)
1.0

>  <Hydrogen_Bond_Acceptors> (3)
0.0

>  <Polar_Surface_Area> (3)
0.0

>  <Lipinski_Score> (3)
0.0

>  <Canc_iss2> (3)
3

>  <ALogP> (3)
2.6

>  <Hydrogen_Bond_Donors> (3)
0.0

>  <ChemName_iss2> (3)
1,1,1,2-Tetrachloroethane

>  <SMILES_iss2> (3)
ClC(CCl)(Cl)Cl

>  <SAL_iss2> (3)
1

>  <CAS_iss2> (3)
630-20-6

>  <Formula_iss2> (3)
C2H2Cl4

>  <Structural Alert for genotoxic carcinogenicity> (3)
YES

>  <Structural Alert for nongenotoxic carcinogenicity> (3)
YES

>  <SA42_nogen> (3)
NO

>  <SA47_nogen> (3)
NO

>  <SA44_nogen> (3)
NO

>  <SA41_nogen> (3)
NO

>  <SA49_nogen> (3)
NO

>  <SA46_nogen> (3)
NO

>  <SA43_nogen> (3)
NO

>  <SA40_nogen> (3)
NO

>  <SA48_nogen> (3)
NO

>  <SA45_nogen> (3)
NO

>  <SA38_gen> (3)
NO

>  <SA50_nogen> (3)
NO

>  <SA55_nogen> (3)
NO

>  <SA52_nogen> (3)
NO

>  <SA54_nogen> (3)
NO

>  <SA51_nogen> (3)
NO

>  <SA56_nogen> (3)
YES

>  <SA53_nogen> (3)
NO

>  <SA39_gen_and_nogen> (3)
NO

>  <SA37_gen> (3)
NO

$$$$
iss2_121
csCF1100/12201114322D

 21 22  0  0  0  0  0  0  0  0999 V2000
    3.4530    0.0000    0.0000 C   0  0  0  0  0  0  0  0  0  0  0  0
    4.6082   -0.6728    0.0000 C   0  0  0  0  0  0  0  0  0  0  0  0
    3.4530   -2.6659    0.0000 C   0  0  0  0  0  0  0  0  0  0  0  0
    2.2978   -1.9931    0.0000 C   0  0  0  0  0  0  0  0  0  0  0  0
    4.6082   -1.9931    0.0000 C   0  0  0  0  0  0  0  0  0  0  0  0
    2.2978   -0.6728    0.0000 C   0  0  0  0  0  0  0  0  0  0  0  0
    1.1552    0.0000    0.0000 O   0  0  0  0  0  0  0  0  0  0  0  0
    5.7508   -2.6659    0.0000 C   0  0  0  0  0  0  0  0  0  0  0  0
    6.9060   -1.9931    0.0000 C   0  0  0  0  0  0  0  0  0  0  0  0
    6.9060   -0.6728    0.0000 C   0  0  0  0  0  0  0  0  0  0  0  0
    9.2038   -0.6728    0.0000 C   0  0  0  0  0  0  0  0  0  0  0  0
    9.2038   -1.9931    0.0000 C   0  0  0  0  0  0  0  0  0  0  0  0
    8.0612    0.0000    0.0000 C   0  0  0  0  0  0  0  0  0  0  0  0
    8.0612   -2.6659    0.0000 C   0  0  0  0  0  0  0  0  0  0  0  0
   10.3590    0.0000    0.0000 O   0  0  0  0  0  0  0  0  0  0  0  0
   11.5142   -0.6728    0.0000 C   0  0  0  0  0  0  0  0  0  0  0  0
    0.0000   -0.6728    0.0000 C   0  0  0  0  0  0  0  0  0  0  0  0
    5.7508   -3.9862    0.0000 C   0  0  0  0  0  0  0  0  0  0  0  0
    4.4305   -3.9862    0.0000 Cl  0  0  0  0  0  0  0  0  0  0  0  0
    5.7508   -5.3191    0.0000 Cl  0  0  0  0  0  0  0  0  0  0  0  0
    7.0837   -3.9862    0.0000 Cl  0  0  0  0  0  0  0  0  0  0  0  0
  1  2  2  0        0
  1  6  1  0        0
  2  5  1  0        0
  3  4  1  0        0
  3  5  2  0        0
  4  6  2  0        0
  5  8  1  0        0
  6  7  1  0        0
  7 17  1  0        0
  8  9  1  0        0
  8 18  1  0        0
  9 10  2  0        0
  9 14  1  0        0
 10 13  1  0        0
 11 12  1  0        0
 11 13  2  0        0
 11 15  1  0        0
 12 14  2  0        0
 15 16  1  0        0
 18 19  1  0        0
 18 20  1  0        0
 18 21  1  0        0
M  END
>  <MolfileName> (4)
iss2_121

>  <cdk_Title> (4)
iss2_121

>  <Substance ID> (4)
iss2_121

>  <Molecular_Weight> (4)
345.7

>  <FW_iss2> (4)
345.6

>  <Parent_Atom_Count> (4)
21.0

>  <Parent_Molecular_Weight> (4)
345.7

>  <Rotatable_Bonds> (4)
5.0

>  <Hydrogen_Bond_Acceptors> (4)
2.0

>  <Polar_Surface_Area> (4)
18.46

>  <Lipinski_Score> (4)
1.0

>  <Canc_iss2> (4)
1

>  <ALogP> (4)
5.21

>  <Hydrogen_Bond_Donors> (4)
0.0

>  <ChemName_iss2> (4)
Methoxychlor

>  <SMILES_iss2> (4)
ClC(C(C1=CC=C(C=C1)OC)C2=CC=C(C=C2)OC)(Cl)Cl

>  <SAL_iss2> (4)
1

>  <CAS_iss2> (4)
72-43-5

>  <Formula_iss2> (4)
C16H15Cl3O2

>  <Structural Alert for genotoxic carcinogenicity> (4)
NO

>  <Structural Alert for nongenotoxic carcinogenicity> (4)
YES

>  <SA42_nogen> (4)
NO

>  <SA47_nogen> (4)
NO

>  <SA44_nogen> (4)
NO

>  <SA41_nogen> (4)
NO

>  <SA49_nogen> (4)
NO

>  <SA46_nogen> (4)
NO

>  <SA43_nogen> (4)
NO

>  <SA40_nogen> (4)
NO

>  <SA48_nogen> (4)
NO

>  <SA45_nogen> (4)
NO

>  <SA38_gen> (4)
NO

>  <SA50_nogen> (4)
NO

>  <SA55_nogen> (4)
NO

>  <SA52_nogen> (4)
NO

>  <SA54_nogen> (4)
NO

>  <SA51_nogen> (4)
NO

>  <SA56_nogen> (4)
YES

>  <SA53_nogen> (4)
NO

>  <SA39_gen_and_nogen> (4)
NO

>  <SA37_gen> (4)
NO

$$$$
iss2_181
csCF1100/12201114322D

 20 21  0  0  0  0  0  0  0  0999 V2000
    1.3297   -1.3297    0.0000 C   0  0  0  0  0  0  0  0  0  0  0  0
    1.9882   -0.1773    0.0000 C   0  0  0  0  0  0  0  0  0  0  0  0
    3.9891   -1.3297    0.0000 C   0  0  0  0  0  0  0  0  0  0  0  0
    3.3180   -2.4821    0.0000 C   0  0  0  0  0  0  0  0  0  0  0  0
    3.3180   -0.1773    0.0000 C   0  0  0  0  0  0  0  0  0  0  0  0
    1.9882   -2.4821    0.0000 C   0  0  0  0  0  0  0  0  0  0  0  0
    0.0000   -1.3297    0.0000 Cl  0  0  0  0  0  0  0  0  0  0  0  0
    5.3189   -1.3297    0.0000 C   0  0  0  0  0  0  0  0  0  0  0  0
    5.3189    0.0000    0.0000 O   0  0  0  0  0  0  0  0  0  0  0  0
    6.6486   -1.3297    0.0000 C   0  0  0  0  0  0  0  0  0  0  0  0
    7.3071   -0.1773    0.0000 C   0  0  0  0  0  0  0  0  0  0  0  0
    9.3080   -1.3297    0.0000 C   0  0  0  0  0  0  0  0  0  0  0  0
    8.6368   -2.4821    0.0000 C   0  0  0  0  0  0  0  0  0  0  0  0
    8.6368   -0.1773    0.0000 C   0  0  0  0  0  0  0  0  0  0  0  0
    7.3071   -2.4821    0.0000 C   0  0  0  0  0  0  0  0  0  0  0  0
   10.6377   -1.3297    0.0000 Cl  0  0  0  0  0  0  0  0  0  0  0  0
    5.3189   -2.6594    0.0000 C   0  0  0  0  0  0  0  0  0  0  0  0
    5.3189   -3.9891    0.0000 Cl  0  0  0  0  0  0  0  0  0  0  0  0
    3.9891   -2.6594    0.0000 Cl  0  0  0  0  0  0  0  0  0  0  0  0
    6.6486   -2.6594    0.0000 Cl  0  0  0  0  0  0  0  0  0  0  0  0
  1  2  2  0        0
  1  6  1  0        0
  1  7  1  0        0
  2  5  1  0        0
  3  4  1  0        0
  3  5  2  0        0
  3  8  1  0        0
  4  6  2  0        0
  8  9  1  0        0
  8 10  1  0        0
  8 17  1  0        0
 10 11  2  0        0
 10 15  1  0        0
 11 14  1  0        0
 12 13  1  0        0
 12 14  2  0        0
 12 16  1  0        0
 13 15  2  0        0
 17 18  1  0        0
 17 19  1  0        0
 17 20  1  0        0
M  END
>  <MolfileName> (5)
iss2_181

>  <cdk_Title> (5)
iss2_181

>  <Substance ID> (5)
iss2_181

>  <Molecular_Weight> (5)
370.5

>  <FW_iss2> (5)
370.5

>  <Parent_Atom_Count> (5)
20.0

>  <Parent_Molecular_Weight> (5)
370.5

>  <Rotatable_Bonds> (5)
3.0

>  <Hydrogen_Bond_Acceptors> (5)
1.0

>  <Polar_Surface_Area> (5)
20.23

>  <Lipinski_Score> (5)
1.0

>  <Canc_iss2> (5)
3

>  <ALogP> (5)
5.6

>  <Hydrogen_Bond_Donors> (5)
1.0

>  <ChemName_iss2> (5)
Dicofol

>  <SMILES_iss2> (5)
OC(C1=CC=C(C=C1)Cl)(C2=CC=C(C=C2)Cl)C(Cl)(Cl)Cl

>  <SAL_iss2> (5)
1

>  <CAS_iss2> (5)
115-32-2

>  <Formula_iss2> (5)
C14H9Cl5O

>  <Structural Alert for genotoxic carcinogenicity> (5)
NO

>  <Structural Alert for nongenotoxic carcinogenicity> (5)
YES

>  <SA42_nogen> (5)
NO

>  <SA47_nogen> (5)
NO

>  <SA44_nogen> (5)
NO

>  <SA41_nogen> (5)
NO

>  <SA49_nogen> (5)
NO

>  <SA46_nogen> (5)
NO

>  <SA43_nogen> (5)
NO

>  <SA40_nogen> (5)
NO

>  <SA48_nogen> (5)
NO

>  <SA45_nogen> (5)
NO

>  <SA38_gen> (5)
NO

>  <SA50_nogen> (5)
NO

>  <SA55_nogen> (5)
NO

>  <SA52_nogen> (5)
NO

>  <SA54_nogen> (5)
NO

>  <SA51_nogen> (5)
NO

>  <SA56_nogen> (5)
YES

>  <SA53_nogen> (5)
NO

>  <SA39_gen_and_nogen> (5)
NO

>  <SA37_gen> (5)
NO

$$$$
iss2_196
csCF1100/12201114322D

  8  7  0  0  0  0  0  0  0  0999 V2000
   43.0320  -66.8504    0.0000 C   0  0  0  0  0  0  0  0  0  0  0  0
   42.5496  -65.4128    0.0000 Cl  0  0  0  0  0  0  0  0  0  0  0  0
   42.1071  -66.9392    0.0000 Cl  0  0  0  0  0  0  0  0  0  0  0  0
   42.7203  -68.2926    0.0000 Cl  0  0  0  0  0  0  0  0  0  0  0  0
   44.5322  -66.7688    0.0000 C   0  0  0  0  0  0  0  0  0  0  0  0
   44.8439  -65.3266    0.0000 Cl  0  0  0  0  0  0  0  0  0  0  0  0
   45.0146  -68.2064    0.0000 Cl  0  0  0  0  0  0  0  0  0  0  0  0
   45.4571  -66.6801    0.0000 Cl  0  0  0  0  0  0  0  0  0  0  0  0
  1  2  1  0        0
  1  3  1  0        0
  1  4  1  0        0
  1  5  1  0        0
  5  6  1  0        0
  5  7  1  0        0
  5  8  1  0        0
M  END
>  <MolfileName> (6)
iss2_196

>  <cdk_Title> (6)
iss2_196

>  <Substance ID> (6)
iss2_196

>  <Molecular_Weight> (6)
236.7

>  <FW_iss2> (6)
236.7

>  <Parent_Atom_Count> (6)
8.0

>  <Parent_Molecular_Weight> (6)
236.7

>  <Rotatable_Bonds> (6)
1.0

>  <Hydrogen_Bond_Acceptors> (6)
0.0

>  <Polar_Surface_Area> (6)
0.0

>  <Lipinski_Score> (6)
0.0

>  <Canc_iss2> (6)
3

>  <ALogP> (6)
3.73

>  <Hydrogen_Bond_Donors> (6)
0.0

>  <ChemName_iss2> (6)
Hexachloroethane

>  <SMILES_iss2> (6)
ClC(C(Cl)(Cl)Cl)(Cl)Cl

>  <SAL_iss2> (6)
1

>  <CAS_iss2> (6)
67-72-1

>  <Formula_iss2> (6)
C2Cl6

>  <Structural Alert for genotoxic carcinogenicity> (6)
NO

>  <Structural Alert for nongenotoxic carcinogenicity> (6)
YES

>  <SA42_nogen> (6)
NO

>  <SA47_nogen> (6)
NO

>  <SA44_nogen> (6)
NO

>  <SA41_nogen> (6)
NO

>  <SA49_nogen> (6)
NO

>  <SA46_nogen> (6)
NO

>  <SA43_nogen> (6)
NO

>  <SA40_nogen> (6)
NO

>  <SA48_nogen> (6)
NO

>  <SA45_nogen> (6)
NO

>  <SA38_gen> (6)
NO

>  <SA50_nogen> (6)
NO

>  <SA55_nogen> (6)
NO

>  <SA52_nogen> (6)
NO

>  <SA54_nogen> (6)
NO

>  <SA51_nogen> (6)
NO

>  <SA56_nogen> (6)
YES

>  <SA53_nogen> (6)
NO

>  <SA39_gen_and_nogen> (6)
NO

>  <SA37_gen> (6)
NO

$$$$
iss2_250
csCF1100/12201114322D

  5  4  0  0  0  0  0  0  0  0999 V2000
    1.3375   -1.3375    0.0000 C   0  0  0  0  0  0  0  0  0  0  0  0
    2.6600   -1.3375    0.0000 Cl  0  0  0  0  0  0  0  0  0  0  0  0
    1.3375    0.0000    0.0000 Cl  0  0  0  0  0  0  0  0  0  0  0  0
    1.3375   -2.6600    0.0000 Cl  0  0  0  0  0  0  0  0  0  0  0  0
    0.0000   -1.3375    0.0000 Cl  0  0  0  0  0  0  0  0  0  0  0  0
  1  2  1  0        0
  1  3  1  0        0
  1  4  1  0        0
  1  5  1  0        0
M  END
>  <MolfileName> (7)
iss2_250

>  <cdk_Title> (7)
iss2_250

>  <Substance ID> (7)
iss2_250

>  <Molecular_Weight> (7)
153.8

>  <FW_iss2> (7)
153.8

>  <Parent_Atom_Count> (7)
5.0

>  <Parent_Molecular_Weight> (7)
153.8

>  <Rotatable_Bonds> (7)
0.0

>  <Hydrogen_Bond_Acceptors> (7)
0.0

>  <Polar_Surface_Area> (7)
0.0

>  <Lipinski_Score> (7)
0.0

>  <Canc_iss2> (7)
3

>  <ALogP> (7)
2.55

>  <Hydrogen_Bond_Donors> (7)
0.0

>  <ChemName_iss2> (7)
Carbon tetrachloride 

>  <SMILES_iss2> (7)
ClC(Cl)(Cl)Cl

>  <SAL_iss2> (7)
1

>  <CAS_iss2> (7)
56-23-5

>  <Formula_iss2> (7)
CCl4

>  <Structural Alert for genotoxic carcinogenicity> (7)
NO

>  <Structural Alert for nongenotoxic carcinogenicity> (7)
YES

>  <SA42_nogen> (7)
NO

>  <SA47_nogen> (7)
NO

>  <SA44_nogen> (7)
NO

>  <SA41_nogen> (7)
NO

>  <SA49_nogen> (7)
NO

>  <SA46_nogen> (7)
NO

>  <SA43_nogen> (7)
NO

>  <SA40_nogen> (7)
NO

>  <SA48_nogen> (7)
NO

>  <SA45_nogen> (7)
NO

>  <SA38_gen> (7)
NO

>  <SA50_nogen> (7)
NO

>  <SA55_nogen> (7)
NO

>  <SA52_nogen> (7)
NO

>  <SA54_nogen> (7)
NO

>  <SA51_nogen> (7)
NO

>  <SA56_nogen> (7)
YES

>  <SA53_nogen> (7)
NO

>  <SA39_gen_and_nogen> (7)
NO

>  <SA37_gen> (7)
NO

$$$$
iss2_715
csCF1100/12201114322D

 18 19  0  0  0  0  0  0  0  0999 V2000
    6.5895   -4.5694    0.0000 S   0  0  0  0  0  0  0  0  0  0  0  0
    6.5895   -5.9001    0.0000 C   0  0  0  0  0  0  0  0  0  0  0  0
    5.4512   -3.8960    0.0000 N   0  0  0  0  0  0  0  0  0  0  0  0
    6.5895   -7.2309    0.0000 Cl  0  0  0  0  0  0  0  0  0  0  0  0
    5.2588   -5.9001    0.0000 Cl  0  0  0  0  0  0  0  0  0  0  0  0
    7.9203   -5.9001    0.0000 Cl  0  0  0  0  0  0  0  0  0  0  0  0
    5.3069   -2.5813    0.0000 C   0  0  0  0  0  0  0  0  0  0  0  0
    4.2327   -4.4411    0.0000 C   0  0  0  0  0  0  0  0  0  0  0  0
    6.3010   -1.6835    0.0000 O   0  0  0  0  0  0  0  0  0  0  0  0
    4.0082   -2.2927    0.0000 C   0  0  2  0  0  0  0  0  0  0  0  0
    3.9441   -5.7398    0.0000 O   0  0  0  0  0  0  0  0  0  0  0  0
    3.3349   -3.4471    0.0000 C   0  0  1  0  0  0  0  0  0  0  0  0
    3.3349   -1.1544    0.0000 C   0  0  0  0  0  0  0  0  0  0  0  0
    2.0041   -3.4471    0.0000 C   0  0  0  0  0  0  0  0  0  0  0  0
    2.0041   -1.1544    0.0000 C   0  0  0  0  0  0  0  0  0  0  0  0
    1.3468   -2.2927    0.0000 C   0  0  0  0  0  0  0  0  0  0  0  0
    4.8580   -1.2826    0.0000 H   0  0  0  0  0  0  0  0  0  0  0  0
    2.8859   -4.6977    0.0000 H   0  0  0  0  0  0  0  0  0  0  0  0
  1  2  1  0        0
  1  3  1  0        0
  2  4  1  0        0
  2  5  1  0        0
  2  6  1  0        0
  3  7  1  0        0
  3  8  1  0        0
  7  9  2  0        0
  7 10  1  0        0
  8 11  2  0        0
  8 12  1  0        0
 10 12  1  0        0
 10 13  1  6        0
 10 17  1  1        0
 12 14  1  6        0
 12 18  1  1        0
 13 15  1  0        0
 14 16  1  0        0
 15 16  2  0        0
M  END
>  <MolfileName> (8)
iss2_715

>  <cdk_Title> (8)
iss2_715

>  <Substance ID> (8)
iss2_715

>  <Molecular_Weight> (8)
300.6

>  <FW_iss2> (8)
300.6

>  <Parent_Atom_Count> (8)
16.0

>  <Parent_Molecular_Weight> (8)
300.6

>  <Rotatable_Bonds> (8)
2.0

>  <Hydrogen_Bond_Acceptors> (8)
2.0

>  <Polar_Surface_Area> (8)
37.38

>  <Lipinski_Score> (8)
0.0

>  <Canc_iss2> (8)
3

>  <ALogP> (8)
2.91

>  <Hydrogen_Bond_Donors> (8)
0.0

>  <ChemName_iss2> (8)
Captan 

>  <SMILES_iss2> (8)
O=C1N(C(=O)C2C1CC=CC2)SC(Cl)(Cl)Cl

>  <SAL_iss2> (8)
3

>  <CAS_iss2> (8)
133-06-2

>  <Formula_iss2> (8)
C9H8Cl3NO2S

>  <Structural Alert for genotoxic carcinogenicity> (8)
NO

>  <Structural Alert for nongenotoxic carcinogenicity> (8)
YES

>  <SA42_nogen> (8)
NO

>  <SA47_nogen> (8)
NO

>  <SA44_nogen> (8)
NO

>  <SA41_nogen> (8)
NO

>  <SA49_nogen> (8)
NO

>  <SA46_nogen> (8)
NO

>  <SA43_nogen> (8)
NO

>  <SA40_nogen> (8)
NO

>  <SA48_nogen> (8)
NO

>  <SA45_nogen> (8)
NO

>  <SA38_gen> (8)
NO

>  <SA50_nogen> (8)
YES

>  <SA55_nogen> (8)
NO

>  <SA52_nogen> (8)
NO

>  <SA54_nogen> (8)
NO

>  <SA51_nogen> (8)
NO

>  <SA56_nogen> (8)
YES

>  <SA53_nogen> (8)
NO

>  <SA39_gen_and_nogen> (8)
NO

>  <SA37_gen> (8)
NO

$$$$
iss2_751
csCF1100/12201114322D

 19 20  0  0  0  0  0  0  0  0999 V2000
    2.2938   -5.3226    0.0000 C   0  0  0  0  0  0  0  0  0  0  0  0
    1.1532   -4.6509    0.0000 C   0  0  0  0  0  0  0  0  0  0  0  0
    1.1532   -3.3203    0.0000 C   0  0  0  0  0  0  0  0  0  0  0  0
    2.2938   -2.6613    0.0000 C   0  0  0  0  0  0  0  0  0  0  0  0
    3.4470   -3.3203    0.0000 C   0  0  0  0  0  0  0  0  0  0  0  0
    3.4470   -4.6509    0.0000 C   0  0  0  0  0  0  0  0  0  0  0  0
    4.6002   -2.6613    0.0000 C   0  0  0  0  0  0  0  0  0  0  0  0
    5.7535   -3.3203    0.0000 C   0  0  0  0  0  0  0  0  0  0  0  0
    6.9067   -2.6613    0.0000 C   0  0  0  0  0  0  0  0  0  0  0  0
    8.0599   -3.3203    0.0000 C   0  0  0  0  0  0  0  0  0  0  0  0
    8.0599   -4.6509    0.0000 C   0  0  0  0  0  0  0  0  0  0  0  0
    6.9067   -5.3226    0.0000 C   0  0  0  0  0  0  0  0  0  0  0  0
    5.7535   -4.6509    0.0000 C   0  0  0  0  0  0  0  0  0  0  0  0
    9.2131   -5.3226    0.0000 Cl  0  0  0  0  0  0  0  0  0  0  0  0
    4.6002   -1.3306    0.0000 C   0  0  0  0  0  0  0  0  0  0  0  0
    5.9309   -1.3306    0.0000 Cl  0  0  0  0  0  0  0  0  0  0  0  0
    3.2696   -1.3306    0.0000 Cl  0  0  0  0  0  0  0  0  0  0  0  0
    4.6002    0.0000    0.0000 Cl  0  0  0  0  0  0  0  0  0  0  0  0
    0.0000   -5.3226    0.0000 Cl  0  0  0  0  0  0  0  0  0  0  0  0
  1  2  1  0        0
  1  6  2  0        0
  2  3  2  0        0
  2 19  1  0        0
  3  4  1  0        0
  4  5  2  0        0
  5  6  1  0        0
  5  7  1  0        0
  7  8  1  0        0
  7 15  1  0        0
  8  9  1  0        0
  8 13  2  0        0
  9 10  2  0        0
 10 11  1  0        0
 11 12  2  0        0
 11 14  1  0        0
 12 13  1  0        0
 15 16  1  0        0
 15 17  1  0        0
 15 18  1  0        0
M  END
>  <MolfileName> (9)
iss2_751

>  <cdk_Title> (9)
iss2_751

>  <Substance ID> (9)
iss2_751

>  <Molecular_Weight> (9)
354.5

>  <FW_iss2> (9)
354.5

>  <Parent_Atom_Count> (9)
19.0

>  <Parent_Molecular_Weight> (9)
354.5

>  <Rotatable_Bonds> (9)
3.0

>  <Hydrogen_Bond_Acceptors> (9)
0.0

>  <Polar_Surface_Area> (9)
0.0

>  <Lipinski_Score> (9)
1.0

>  <Canc_iss2> (9)
3

>  <ALogP> (9)
6.5

>  <Hydrogen_Bond_Donors> (9)
0.0

>  <ChemName_iss2> (9)
DDT

>  <SMILES_iss2> (9)
ClC(C(C1=CC=C(C=C1)Cl)C2=CC=C(C=C2)Cl)(Cl)Cl

>  <SAL_iss2> (9)
1

>  <CAS_iss2> (9)
50-29-3

>  <Formula_iss2> (9)
C14H9Cl5

>  <Structural Alert for genotoxic carcinogenicity> (9)
NO

>  <Structural Alert for nongenotoxic carcinogenicity> (9)
YES

>  <SA42_nogen> (9)
NO

>  <SA47_nogen> (9)
NO

>  <SA44_nogen> (9)
NO

>  <SA41_nogen> (9)
NO

>  <SA49_nogen> (9)
NO

>  <SA46_nogen> (9)
NO

>  <SA43_nogen> (9)
NO

>  <SA40_nogen> (9)
NO

>  <SA48_nogen> (9)
NO

>  <SA45_nogen> (9)
NO

>  <SA38_gen> (9)
NO

>  <SA50_nogen> (9)
NO

>  <SA55_nogen> (9)
NO

>  <SA52_nogen> (9)
NO

>  <SA54_nogen> (9)
NO

>  <SA51_nogen> (9)
NO

>  <SA56_nogen> (9)
YES

>  <SA53_nogen> (9)
NO

>  <SA39_gen_and_nogen> (9)
NO

>  <SA37_gen> (9)
NO

$$$$
iss2_769
csCF1100/12201114322D

  7  6  0  0  0  0  0  0  0  0999 V2000
    1.1555   -1.1555    0.0000 C   0  0  0  0  0  0  0  0  0  0  0  0
    2.3109   -1.8195    0.0000 C   0  0  0  0  0  0  0  0  0  0  0  0
    3.4531   -1.1555    0.0000 O   0  0  0  0  0  0  0  0  0  0  0  0
    2.3109   -3.1476    0.0000 O   0  0  0  0  0  0  0  0  0  0  0  0
    0.0000   -0.4914    0.0000 Cl  0  0  0  0  0  0  0  0  0  0  0  0
    0.4914   -2.3109    0.0000 Cl  0  0  0  0  0  0  0  0  0  0  0  0
    1.8195    0.0000    0.0000 Cl  0  0  0  0  0  0  0  0  0  0  0  0
  1  2  1  0        0
  1  5  1  0        0
  1  6  1  0        0
  1  7  1  0        0
  2  3  1  0        0
  2  4  1  0        0
M  END
>  <MolfileName> (10)
iss2_769

>  <cdk_Title> (10)
iss2_769

>  <Substance ID> (10)
iss2_769

>  <Molecular_Weight> (10)
165.4

>  <FW_iss2> (10)
165.4

>  <Parent_Atom_Count> (10)
7.0

>  <Parent_Molecular_Weight> (10)
165.4

>  <Rotatable_Bonds> (10)
1.0

>  <Hydrogen_Bond_Acceptors> (10)
2.0

>  <Polar_Surface_Area> (10)
40.46

>  <Lipinski_Score> (10)
0.0

>  <Canc_iss2> (10)
3

>  <ALogP> (10)
0.67

>  <Hydrogen_Bond_Donors> (10)
2.0

>  <ChemName_iss2> (10)
Chloral hydrate

>  <SMILES_iss2> (10)
ClC(C(O)O)(Cl)Cl

>  <SAL_iss2> (10)
3

>  <CAS_iss2> (10)
302-17-0

>  <Formula_iss2> (10)
C2H3Cl3O2

>  <Structural Alert for genotoxic carcinogenicity> (10)
NO

>  <Structural Alert for nongenotoxic carcinogenicity> (10)
YES

>  <SA42_nogen> (10)
NO

>  <SA47_nogen> (10)
NO

>  <SA44_nogen> (10)
NO

>  <SA41_nogen> (10)
NO

>  <SA49_nogen> (10)
NO

>  <SA46_nogen> (10)
NO

>  <SA43_nogen> (10)
NO

>  <SA40_nogen> (10)
NO

>  <SA48_nogen> (10)
NO

>  <SA45_nogen> (10)
NO

>  <SA38_gen> (10)
NO

>  <SA50_nogen> (10)
NO

>  <SA55_nogen> (10)
NO

>  <SA52_nogen> (10)
NO

>  <SA54_nogen> (10)
NO

>  <SA51_nogen> (10)
NO

>  <SA56_nogen> (10)
YES

>  <SA53_nogen> (10)
NO

>  <SA39_gen_and_nogen> (10)
NO

>  <SA37_gen> (10)
NO

$$$$
iss2_800
csCF1100/12201114322D

 10 10  0  0  0  0  0  0  0  0999 V2000
    3.9873    0.0000    0.0000 Cl  0  0  0  0  0  0  0  0  0  0  0  0
    3.9873   -1.3291    0.0000 C   0  0  0  0  0  0  0  0  0  0  0  0
    2.6582   -1.3291    0.0000 C   0  0  0  0  0  0  0  0  0  0  0  0
    1.9936   -2.4827    0.0000 C   0  0  0  0  0  0  0  0  0  0  0  0
    0.6645   -2.4827    0.0000 C   0  0  0  0  0  0  0  0  0  0  0  0
    0.0000   -1.3291    0.0000 C   0  0  0  0  0  0  0  0  0  0  0  0
    0.6645   -0.1754    0.0000 C   0  0  0  0  0  0  0  0  0  0  0  0
    1.9936   -0.1754    0.0000 C   0  0  0  0  0  0  0  0  0  0  0  0
    5.3164   -1.3291    0.0000 Cl  0  0  0  0  0  0  0  0  0  0  0  0
    3.9873   -2.6582    0.0000 Cl  0  0  0  0  0  0  0  0  0  0  0  0
  1  2  1  0        0
  2  3  1  0        0
  2  9  1  0        0
  2 10  1  0        0
  3  4  2  0        0
  3  8  1  0        0
  4  5  1  0        0
  5  6  2  0        0
  6  7  1  0        0
  7  8  2  0        0
M  END
>  <MolfileName> (11)
iss2_800

>  <cdk_Title> (11)
iss2_800

>  <Substance ID> (11)
iss2_800

>  <Molecular_Weight> (11)
195.5

>  <FW_iss2> (11)
195.5

>  <Parent_Atom_Count> (11)
10.0

>  <Parent_Molecular_Weight> (11)
195.5

>  <Rotatable_Bonds> (11)
1.0

>  <Hydrogen_Bond_Acceptors> (11)
0.0

>  <Polar_Surface_Area> (11)
0.0

>  <Lipinski_Score> (11)
0.0

>  <Canc_iss2> (11)
3

>  <ALogP> (11)
3.51

>  <Hydrogen_Bond_Donors> (11)
0.0

>  <ChemName_iss2> (11)
Benzotrichloride

>  <SMILES_iss2> (11)
ClC(C1=CC=CC=C1)(Cl)Cl

>  <SAL_iss2> (11)
3

>  <CAS_iss2> (11)
98-07-7

>  <Formula_iss2> (11)
C7H5Cl3

>  <Structural Alert for genotoxic carcinogenicity> (11)
NO

>  <Structural Alert for nongenotoxic carcinogenicity> (11)
YES

>  <SA42_nogen> (11)
NO

>  <SA47_nogen> (11)
NO

>  <SA44_nogen> (11)
NO

>  <SA41_nogen> (11)
NO

>  <SA49_nogen> (11)
NO

>  <SA46_nogen> (11)
NO

>  <SA43_nogen> (11)
NO

>  <SA40_nogen> (11)
NO

>  <SA48_nogen> (11)
NO

>  <SA45_nogen> (11)
NO

>  <SA38_gen> (11)
NO

>  <SA50_nogen> (11)
NO

>  <SA55_nogen> (11)
NO

>  <SA52_nogen> (11)
NO

>  <SA54_nogen> (11)
NO

>  <SA51_nogen> (11)
NO

>  <SA56_nogen> (11)
YES

>  <SA53_nogen> (11)
NO

>  <SA39_gen_and_nogen> (11)
NO

>  <SA37_gen> (11)
NO

$$$$
