iss2_148


 16 18  0  0  0  0  0  0  0  0999 V2000
    0.7734   -0.6593    0.0000 C   0  0  0  0  0  0  0  0  0  0  0  0
    1.9271   -0.0000    0.0000 C   0  0  0  0  0  0  0  0  0  0  0  0
    3.0681   -0.6593    0.0000 C   0  0  0  0  0  0  0  0  0  0  0  0
    0.7734   -1.9905    0.0000 C   0  0  0  0  0  0  0  0  0  0  0  0
    1.9271   -2.6624    0.0000 C   0  0  0  0  0  0  0  0  0  0  0  0
    3.0681   -1.9905    0.0000 C   0  0  0  0  0  0  0  0  0  0  0  0
    2.1933   -3.9556    0.0000 N   0  0  0  0  0  0  0  0  0  0  0  0
    3.5245   -4.0951    0.0000 C   0  0  0  0  0  0  0  0  0  0  0  0
    4.0570   -2.8779    0.0000 C   0  0  0  0  0  0  0  0  0  0  0  0
    6.1743   -3.8161    0.0000 C   0  0  0  0  0  0  0  0  0  0  0  0
    5.6291   -5.0332    0.0000 C   0  0  0  0  0  0  0  0  0  0  0  0
    5.3882   -2.7385    0.0000 C   0  0  0  0  0  0  0  0  0  0  0  0
    4.3106   -5.1727    0.0000 C   0  0  0  0  0  0  0  0  0  0  0  0
    7.4928   -3.6767    0.0000 N   0  0  0  0  0  0  0  0  0  0  0  0
    1.3059   -4.9445    0.0000 C   0  0  0  0  0  0  0  0  0  0  0  0
    0.0000   -4.6656    0.0000 C   0  0  0  0  0  0  0  0  0  0  0  0
  1  2  2  0  0  0  0
  1  4  1  0  0  0  0
  2  3  1  0  0  0  0
  3  6  2  0  0  0  0
  4  5  2  0  0  0  0
  5  6  1  0  0  0  0
  5  7  1  0  0  0  0
  6  9  1  0  0  0  0
  7  8  1  0  0  0  0
  7 15  1  0  0  0  0
  8  9  2  0  0  0  0
  8 13  1  0  0  0  0
  9 12  1  0  0  0  0
 10 11  1  0  0  0  0
 10 12  2  0  0  0  0
 10 14  1  0  0  0  0
 11 13  2  0  0  0  0
 15 16  1  0  0  0  0
M  END
>  <Substance ID> (iss2_148)
iss2_148

>  <ID_iss2> (iss2_148)
148.0

>  <Canc_iss2> (iss2_148)
3.0

>  <SAL_iss2> (iss2_148)
3

>  <CAS_iss2> (iss2_148)
132-32-1

$$$$
iss2_221


 16 18  0  0  0  0  0  0  0  0999 V2000
    1.1525   -1.9883    0.0000 C   0  0  0  0  0  0  0  0  0  0  0  0
    1.1525   -0.6586    0.0000 C   0  0  0  0  0  0  0  0  0  0  0  0
    2.3049   -0.0000    0.0000 C   0  0  0  0  0  0  0  0  0  0  0  0
    2.3049   -2.6595    0.0000 C   0  0  0  0  0  0  0  0  0  0  0  0
    3.4574   -1.9883    0.0000 C   0  0  0  0  0  0  0  0  0  0  0  0
    3.4574   -0.6586    0.0000 C   0  0  0  0  0  0  0  0  0  0  0  0
    4.6099   -0.0000    0.0000 N   0  0  0  0  0  0  0  0  0  0  0  0
    4.6099   -2.6595    0.0000 C   0  0  0  0  0  0  0  0  0  0  0  0
    5.7623   -1.9883    0.0000 C   0  0  0  0  0  0  0  0  0  0  0  0
    5.7623   -0.6586    0.0000 C   0  0  0  0  0  0  0  0  0  0  0  0
    8.0673   -0.6586    0.0000 C   0  0  0  0  0  0  0  0  0  0  0  0
    8.0673   -1.9883    0.0000 C   0  0  0  0  0  0  0  0  0  0  0  0
    6.9148   -0.0000    0.0000 C   0  0  0  0  0  0  0  0  0  0  0  0
    6.9148   -2.6595    0.0000 C   0  0  0  0  0  0  0  0  0  0  0  0
    0.0000   -0.0000    0.0000 N   0  0  0  0  0  0  0  0  0  0  0  0
    9.2197   -0.0000    0.0000 N   0  0  0  0  0  0  0  0  0  0  0  0
  1  2  2  0  0  0  0
  1  4  1  0  0  0  0
  2  3  1  0  0  0  0
  2 15  1  0  0  0  0
  3  6  2  0  0  0  0
  4  5  2  0  0  0  0
  5  6  1  0  0  0  0
  5  8  1  0  0  0  0
  6  7  1  0  0  0  0
  7 10  2  0  0  0  0
  8  9  2  0  0  0  0
  9 10  1  0  0  0  0
  9 14  1  0  0  0  0
 10 13  1  0  0  0  0
 11 12  1  0  0  0  0
 11 13  2  0  0  0  0
 11 16  1  0  0  0  0
 12 14  2  0  0  0  0
M  END
>  <Substance ID> (iss2_221)
iss2_221

>  <ID_iss2> (iss2_221)
221.0

>  <Canc_iss2> (iss2_221)
2.0

>  <SAL_iss2> (iss2_221)
3

>  <CAS_iss2> (iss2_221)
952-23-8

$$$$
iss2_334


 14 16  0  0  0  0  0  0  0  0999 V2000
    2.6465   -0.2533    0.0000 N   0  0  0  0  0  0  0  0  0  0  0  0
    3.9128   -2.0007    0.0000 C   0  0  0  0  0  0  0  0  0  0  0  0
    3.9128   -0.6711    0.0000 C   0  0  0  0  0  0  0  0  0  0  0  0
    6.2174   -0.6711    0.0000 C   0  0  0  0  0  0  0  0  0  0  0  0
    6.2174   -2.0007    0.0000 C   0  0  0  0  0  0  0  0  0  0  0  0
    5.0651   -0.0000    0.0000 C   0  0  0  0  0  0  0  0  0  0  0  0
    5.0651   -2.6592    0.0000 N   0  0  0  0  0  0  0  0  0  0  0  0
    1.8614   -1.3296    0.0000 C   0  0  0  0  0  0  0  0  0  0  0  0
    2.6465   -2.4059    0.0000 N   0  0  0  0  0  0  0  0  0  0  0  0
    2.1020   -3.6216    0.0000 C   0  0  0  0  0  0  0  0  0  0  0  0
    0.7851   -3.7608    0.0000 C   0  0  0  0  0  0  0  0  0  0  0  0
    0.0000   -2.6845    0.0000 C   0  0  0  0  0  0  0  0  0  0  0  0
    0.5445   -1.4689    0.0000 C   0  0  0  0  0  0  0  0  0  0  0  0
    7.3697   -2.6592    0.0000 N   0  0  0  0  0  0  0  0  0  0  0  0
  1  8  2  0  0  0  0
  1  3  1  0  0  0  0
  2  9  1  0  0  0  0
  2  3  2  0  0  0  0
  2  7  1  0  0  0  0
  3  6  1  0  0  0  0
  4  5  1  0  0  0  0
  4  6  2  0  0  0  0
  5  7  2  0  0  0  0
  5 14  1  0  0  0  0
  8  9  1  0  0  0  0
  8 13  1  0  0  0  0
  9 10  1  0  0  0  0
 10 11  2  0  0  0  0
 11 12  1  0  0  0  0
 12 13  2  0  0  0  0
M  END
>  <Substance ID> (iss2_334)
iss2_334

>  <ID_iss2> (iss2_334)
334.0

>  <Canc_iss2> (iss2_334)
3.0

>  <SAL_iss2> (iss2_334)
3

>  <CAS_iss2> (iss2_334)
67730-10-3

$$$$
iss2_345


 13 15  0  0  0  0  0  0  0  0999 V2000
    0.6709   -3.2910    0.0000 C   0  0  0  0  0  0  0  0  0  0  0  0
    0.0000   -2.1392    0.0000 C   0  0  0  0  0  0  0  0  0  0  0  0
    0.6709   -0.9873    0.0000 C   0  0  0  0  0  0  0  0  0  0  0  0
    1.9999   -3.2910    0.0000 C   0  0  0  0  0  0  0  0  0  0  0  0
    2.6581   -2.1392    0.0000 C   0  0  0  0  0  0  0  0  0  0  0  0
    1.9999   -0.9873    0.0000 C   0  0  0  0  0  0  0  0  0  0  0  0
    2.8860   -0.0000    0.0000 N   0  0  0  0  0  0  0  0  0  0  0  0
    3.9619   -1.8607    0.0000 C   0  0  0  0  0  0  0  0  0  0  0  0
    4.1011   -0.5316    0.0000 C   0  0  0  0  0  0  0  0  0  0  0  0
    6.3922   -0.7721    0.0000 C   0  0  0  0  0  0  0  0  0  0  0  0
    6.2529   -2.1012    0.0000 C   0  0  0  0  0  0  0  0  0  0  0  0
    5.3163   -0.0000    0.0000 C   0  0  0  0  0  0  0  0  0  0  0  0
    5.0378   -2.6455    0.0000 C   0  0  0  0  0  0  0  0  0  0  0  0
  1  2  2  0  0  0  0
  1  4  1  0  0  0  0
  2  3  1  0  0  0  0
  3  6  2  0  0  0  0
  4  5  2  0  0  0  0
  5  6  1  0  0  0  0
  5  8  1  0  0  0  0
  6  7  1  0  0  0  0
  7  9  1  0  0  0  0
  8  9  2  0  0  0  0
  8 13  1  0  0  0  0
  9 12  1  0  0  0  0
 10 11  1  0  0  0  0
 10 12  2  0  0  0  0
 11 13  2  0  0  0  0
M  END
>  <Substance ID> (iss2_345)
iss2_345

>  <ID_iss2> (iss2_345)
345.0

>  <Canc_iss2> (iss2_345)
3.0

>  <SAL_iss2> (iss2_345)
1

>  <CAS_iss2> (iss2_345)
86-74-8

$$$$
iss2_368


 15 17  0  0  0  0  0  0  0  0999 V2000
    2.8756   -1.3048    0.0000 N   0  0  0  0  0  0  0  0  0  0  0  0
    4.0917   -1.8495    0.0000 C   0  0  0  0  0  0  0  0  0  0  0  0
    3.9524   -3.1670    0.0000 N   0  0  0  0  0  0  0  0  0  0  0  0
    2.6603   -3.4457    0.0000 C   0  0  0  0  0  0  0  0  0  0  0  0
    1.9889   -4.5985    0.0000 C   0  0  0  0  0  0  0  0  0  0  0  0
    1.9889   -2.2929    0.0000 C   0  0  0  0  0  0  0  0  0  0  0  0
    0.6587   -2.2929    0.0000 C   0  0  0  0  0  0  0  0  0  0  0  0
    0.0000   -3.4457    0.0000 C   0  0  0  0  0  0  0  0  0  0  0  0
    0.6587   -4.5985    0.0000 C   0  0  0  0  0  0  0  0  0  0  0  0
    0.0000   -5.7512    0.0000 N   0  0  0  0  0  0  0  0  0  0  0  0
    0.6587   -6.9040    0.0000 C   0  0  0  0  0  0  0  0  0  0  0  0
    1.9889   -6.9040    0.0000 C   0  0  0  0  0  0  0  0  0  0  0  0
    2.6603   -5.7512    0.0000 C   0  0  0  0  0  0  0  0  0  0  0  0
    2.6096   -0.0000    0.0000 C   0  0  0  0  0  0  0  0  0  0  0  0
    5.2445   -1.1781    0.0000 N   0  0  0  0  0  0  0  0  0  0  0  0
  1  6  1  0  0  0  0
  1  2  1  0  0  0  0
  1 14  1  0  0  0  0
  2  3  2  0  0  0  0
  2 15  1  0  0  0  0
  3  4  1  0  0  0  0
  4  5  2  0  0  0  0
  4  6  1  0  0  0  0
  5 13  1  0  0  0  0
  5  9  1  0  0  0  0
  6  7  2  0  0  0  0
  7  8  1  0  0  0  0
  8  9  2  0  0  0  0
  9 10  1  0  0  0  0
 10 11  2  0  0  0  0
 11 12  1  0  0  0  0
 12 13  2  0  0  0  0
M  END
>  <Substance ID> (iss2_368)
iss2_368

>  <ID_iss2> (iss2_368)
368.0

>  <Canc_iss2> (iss2_368)
3.0

>  <SAL_iss2> (iss2_368)
3

>  <CAS_iss2> (iss2_368)
76180-96-6

$$$$
iss2_370


 15 17  0  0  0  0  0  0  0  0999 V2000
    2.8880   -0.0000    0.0000 N   0  0  0  0  0  0  0  0  0  0  0  0
    2.0013   -0.9880    0.0000 C   0  0  0  0  0  0  0  0  0  0  0  0
    2.6600   -2.1407    0.0000 C   0  0  0  0  0  0  0  0  0  0  0  0
    0.6713   -3.2933    0.0000 C   0  0  0  0  0  0  0  0  0  0  0  0
    0.0000   -2.1407    0.0000 C   0  0  0  0  0  0  0  0  0  0  0  0
    2.0013   -3.2933    0.0000 C   0  0  0  0  0  0  0  0  0  0  0  0
    0.6713   -0.9880    0.0000 C   0  0  0  0  0  0  0  0  0  0  0  0
    3.9647   -1.8620    0.0000 C   0  0  0  0  0  0  0  0  0  0  0  0
    4.1040   -0.5447    0.0000 C   0  0  0  0  0  0  0  0  0  0  0  0
    6.3967   -0.7853    0.0000 C   0  0  0  0  0  0  0  0  0  0  0  0
    6.2573   -2.1027    0.0000 C   0  0  0  0  0  0  0  0  0  0  0  0
    5.3200   -0.0000    0.0000 N   0  0  0  0  0  0  0  0  0  0  0  0
    5.0413   -2.6473    0.0000 C   0  0  0  0  0  0  0  0  0  0  0  0
    7.6000   -0.2407    0.0000 N   0  0  0  0  0  0  0  0  0  0  0  0
    7.3340   -2.8880    0.0000 C   0  0  0  0  0  0  0  0  0  0  0  0
  1  2  1  0  0  0  0
  1  9  1  0  0  0  0
  2  3  2  0  0  0  0
  2  7  1  0  0  0  0
  3  8  1  0  0  0  0
  3  6  1  0  0  0  0
  4  5  1  0  0  0  0
  4  6  2  0  0  0  0
  5  7  2  0  0  0  0
  8  9  2  0  0  0  0
  8 13  1  0  0  0  0
  9 12  1  0  0  0  0
 10 11  1  0  0  0  0
 10 12  2  0  0  0  0
 10 14  1  0  0  0  0
 11 13  2  0  0  0  0
 11 15  1  0  0  0  0
M  END
>  <Substance ID> (iss2_370)
iss2_370

>  <ID_iss2> (iss2_370)
370.0

>  <Canc_iss2> (iss2_370)
3.0

>  <SAL_iss2> (iss2_370)
3

>  <CAS_iss2> (iss2_370)
68006-83-7

$$$$
iss2_429


 16 18  0  0  0  0  0  0  0  0999 V2000
    0.0000   -1.9906    0.0000 C   0  0  0  0  0  0  0  0  0  0  0  0
    0.0000   -0.6593    0.0000 C   0  0  0  0  0  0  0  0  0  0  0  0
    1.1411   -0.0000    0.0000 C   0  0  0  0  0  0  0  0  0  0  0  0
    1.1411   -2.6626    0.0000 C   0  0  0  0  0  0  0  0  0  0  0  0
    2.2949   -1.9906    0.0000 C   0  0  0  0  0  0  0  0  0  0  0  0
    2.2949   -0.6593    0.0000 C   0  0  0  0  0  0  0  0  0  0  0  0
    3.5628   -0.2536    0.0000 N   0  0  0  0  0  0  0  0  0  0  0  0
    3.5628   -2.4090    0.0000 C   0  0  0  0  0  0  0  0  0  0  0  0
    4.3489   -1.3313    0.0000 C   0  0  0  0  0  0  0  0  0  0  0  0
    6.2127   -2.6880    0.0000 C   0  0  0  0  0  0  0  0  0  0  0  0
    5.4266   -3.7530    0.0000 N   0  0  0  0  0  0  0  0  0  0  0  0
    5.6675   -1.4708    0.0000 C   0  0  0  0  0  0  0  0  0  0  0  0
    4.1080   -3.6135    0.0000 C   0  0  0  0  0  0  0  0  0  0  0  0
    3.3219   -4.6913    0.0000 C   0  0  0  0  0  0  0  0  0  0  0  0
    7.5440   -2.8148    0.0000 N   0  0  0  0  0  0  0  0  0  0  0  0
    6.4536   -0.3931    0.0000 C   0  0  0  0  0  0  0  0  0  0  0  0
  1  2  2  0  0  0  0
  1  4  1  0  0  0  0
  2  3  1  0  0  0  0
  3  6  2  0  0  0  0
  4  5  2  0  0  0  0
  5  6  1  0  0  0  0
  5  8  1  0  0  0  0
  6  7  1  0  0  0  0
  7  9  1  0  0  0  0
  8  9  2  0  0  0  0
  8 13  1  0  0  0  0
  9 12  1  0  0  0  0
 10 11  1  0  0  0  0
 10 12  2  0  0  0  0
 10 15  1  0  0  0  0
 11 13  2  0  0  0  0
 12 16  1  0  0  0  0
 13 14  1  0  0  0  0
M  END
>  <Substance ID> (iss2_429)
iss2_429

>  <ID_iss2> (iss2_429)
429.0

>  <Canc_iss2> (iss2_429)
3.0

>  <SAL_iss2> (iss2_429)
3

>  <CAS_iss2> (iss2_429)
75104-43-7

$$$$
iss2_460


 16 18  0  0  0  0  0  0  0  0999 V2000
    0.6593   -2.3076    0.0000 N   0  0  0  0  0  0  0  0  0  0  0  0
    0.0000   -1.1538    0.0000 C   0  0  0  0  0  0  0  0  0  0  0  0
    0.6593   -0.0000    0.0000 C   0  0  0  0  0  0  0  0  0  0  0  0
    1.9906   -0.0000    0.0000 C   0  0  0  0  0  0  0  0  0  0  0  0
    2.6499   -1.1538    0.0000 C   0  0  0  0  0  0  0  0  0  0  0  0
    3.9812   -1.1538    0.0000 C   0  0  0  0  0  0  0  0  0  0  0  0
    4.8688   -0.1648    0.0000 N   0  0  0  0  0  0  0  0  0  0  0  0
    6.0860   -0.7100    0.0000 C   0  0  0  0  0  0  0  0  0  0  0  0
    5.9465   -2.0287    0.0000 N   0  0  0  0  0  0  0  0  0  0  0  0
    4.6532   -2.3076    0.0000 C   0  0  0  0  0  0  0  0  0  0  0  0
    3.9812   -3.4614    0.0000 C   0  0  0  0  0  0  0  0  0  0  0  0
    2.6499   -3.4614    0.0000 C   0  0  0  0  0  0  0  0  0  0  0  0
    1.9906   -2.3076    0.0000 C   0  0  0  0  0  0  0  0  0  0  0  0
    6.9355   -2.9162    0.0000 C   0  0  0  0  0  0  0  0  0  0  0  0
    7.2398   -0.0380    0.0000 N   0  0  0  0  0  0  0  0  0  0  0  0
    4.6532   -4.6025    0.0000 C   0  0  0  0  0  0  0  0  0  0  0  0
  1  2  1  0  0  0  0
  1 13  2  0  0  0  0
  2  3  2  0  0  0  0
  3  4  1  0  0  0  0
  4  5  2  0  0  0  0
  5  6  1  0  0  0  0
  5 13  1  0  0  0  0
  6  7  1  0  0  0  0
  6 10  2  0  0  0  0
  7  8  2  0  0  0  0
  8  9  1  0  0  0  0
  8 15  1  0  0  0  0
  9 10  1  0  0  0  0
  9 14  1  0  0  0  0
 10 11  1  0  0  0  0
 11 12  2  0  0  0  0
 11 16  1  0  0  0  0
 12 13  1  0  0  0  0
M  END
>  <Substance ID> (iss2_460)
iss2_460

>  <ID_iss2> (iss2_460)
460.0

>  <Canc_iss2> (iss2_460)
3.0

>  <SAL_iss2> (iss2_460)
3

>  <CAS_iss2> (iss2_460)
77094-11-2

$$$$
iss2_462


 15 17  0  0  0  0  0  0  0  0999 V2000
    2.4319   -1.4313    0.0000 N   0  0  0  0  0  0  0  0  0  0  0  0
    4.3951   -2.3052    0.0000 C   0  0  0  0  0  0  0  0  0  0  0  0
    3.7365   -1.1526    0.0000 C   0  0  0  0  0  0  0  0  0  0  0  0
    5.7250   -0.0000    0.0000 C   0  0  0  0  0  0  0  0  0  0  0  0
    6.3963   -1.1526    0.0000 C   0  0  0  0  0  0  0  0  0  0  0  0
    4.3951   -0.0000    0.0000 C   0  0  0  0  0  0  0  0  0  0  0  0
    5.7250   -2.3052    0.0000 N   0  0  0  0  0  0  0  0  0  0  0  0
    7.7263   -1.1526    0.0000 N   0  0  0  0  0  0  0  0  0  0  0  0
    2.2925   -2.7485    0.0000 C   0  0  0  0  0  0  0  0  0  0  0  0
    3.5085   -3.2932    0.0000 N   0  0  0  0  0  0  0  0  0  0  0  0
    3.6478   -4.6104    0.0000 C   0  0  0  0  0  0  0  0  0  0  0  0
    2.5712   -5.3957    0.0000 C   0  0  0  0  0  0  0  0  0  0  0  0
    1.3553   -4.8511    0.0000 C   0  0  0  0  0  0  0  0  0  0  0  0
    1.2159   -3.5338    0.0000 C   0  0  0  0  0  0  0  0  0  0  0  0
    0.0000   -2.9892    0.0000 C   0  0  0  0  0  0  0  0  0  0  0  0
  1  9  2  0  0  0  0
  1  3  1  0  0  0  0
  2 10  1  0  0  0  0
  2  3  2  0  0  0  0
  2  7  1  0  0  0  0
  3  6  1  0  0  0  0
  4  5  1  0  0  0  0
  4  6  2  0  0  0  0
  5  7  2  0  0  0  0
  5  8  1  0  0  0  0
  9 10  1  0  0  0  0
  9 14  1  0  0  0  0
 10 11  1  0  0  0  0
 11 12  2  0  0  0  0
 12 13  1  0  0  0  0
 13 14  2  0  0  0  0
 14 15  1  0  0  0  0
M  END
>  <Substance ID> (iss2_462)
iss2_462

>  <ID_iss2> (iss2_462)
462.0

>  <Canc_iss2> (iss2_462)
3.0

>  <SAL_iss2> (iss2_462)
3

>  <CAS_iss2> (iss2_462)
67730-11-4

$$$$
iss2_749


 14 16  0  0  0  0  0  0  0  0999 V2000
    0.6591   -2.3069    0.0000 C   0  0  0  0  0  0  0  0  0  0  0  0
    1.9900   -0.0000    0.0000 C   0  0  0  0  0  0  0  0  0  0  0  0
    0.6591   -0.0000    0.0000 C   0  0  0  0  0  0  0  0  0  0  0  0
    0.0000   -1.1534    0.0000 C   0  0  0  0  0  0  0  0  0  0  0  0
    2.7505   -4.6138    0.0000 C   0  0  0  0  0  0  0  0  0  0  0  0
    3.8279   -5.3997    0.0000 C   0  0  0  0  0  0  0  0  0  0  0  0
    5.0321   -4.8546    0.0000 C   0  0  0  0  0  0  0  0  0  0  0  0
    5.1715   -3.5364    0.0000 N   0  0  0  0  0  0  0  0  0  0  0  0
    6.1095   -5.6405    0.0000 N   0  0  0  0  0  0  0  0  0  0  0  0
    2.6618   -1.1534    0.0000 C   0  0  0  0  0  0  0  0  0  0  0  0
    1.9900   -2.3069    0.0000 C   0  0  0  0  0  0  0  0  0  0  0  0
    2.8900   -3.2956    0.0000 C   0  0  0  0  0  0  0  0  0  0  0  0
    4.0941   -2.7505    0.0000 C   0  0  0  0  0  0  0  0  0  0  0  0
    3.9674   -1.4323    0.0000 N   0  0  0  0  0  0  0  0  0  0  0  0
  1 11  2  0  0  0  0
  1  4  1  0  0  0  0
  2 10  2  0  0  0  0
  2  3  1  0  0  0  0
  3  4  2  0  0  0  0
  5 12  1  0  0  0  0
  5  6  2  0  0  0  0
  6  7  1  0  0  0  0
  7  8  2  0  0  0  0
  7  9  1  0  0  0  0
  8 13  1  0  0  0  0
 10 11  1  0  0  0  0
 10 14  1  0  0  0  0
 11 12  1  0  0  0  0
 12 13  2  0  0  0  0
 13 14  1  0  0  0  0
M  END
>  <Substance ID> (iss2_749)
iss2_749

>  <ID_iss2> (iss2_749)
749.0

>  <Canc_iss2> (iss2_749)
3.0

>  <SAL_iss2> (iss2_749)
3

>  <CAS_iss2> (iss2_749)
26148-68-5

$$$$
iss2_363


 14 16  0  0  0  0  0  0  0  0999 V2000
    2.6486   -0.2535    0.0000 O   0  0  0  0  0  0  0  0  0  0  0  0
    3.9159   -1.9896    0.0000 C   0  0  0  0  0  0  0  0  0  0  0  0
    3.9159   -0.6590    0.0000 C   0  0  0  0  0  0  0  0  0  0  0  0
    6.2223   -0.6590    0.0000 C   0  0  0  0  0  0  0  0  0  0  0  0
    6.2223   -1.9896    0.0000 C   0  0  0  0  0  0  0  0  0  0  0  0
    5.0691   -0.0000    0.0000 C   0  0  0  0  0  0  0  0  0  0  0  0
    5.0691   -2.6613    0.0000 C   0  0  0  0  0  0  0  0  0  0  0  0
    1.8629   -1.3306    0.0000 C   0  0  0  0  0  0  0  0  0  0  0  0
    2.6486   -2.4078    0.0000 C   0  0  0  0  0  0  0  0  0  0  0  0
    0.7857   -3.7511    0.0000 C   0  0  0  0  0  0  0  0  0  0  0  0
    0.0000   -2.6740    0.0000 C   0  0  0  0  0  0  0  0  0  0  0  0
    2.1037   -3.6117    0.0000 C   0  0  0  0  0  0  0  0  0  0  0  0
    0.5449   -1.4700    0.0000 C   0  0  0  0  0  0  0  0  0  0  0  0
    7.3756   -2.6613    0.0000 N   0  0  0  0  0  0  0  0  0  0  0  0
  1  8  1  0  0  0  0
  1  3  1  0  0  0  0
  2  9  1  0  0  0  0
  2  3  2  0  0  0  0
  2  7  1  0  0  0  0
  3  6  1  0  0  0  0
  4  5  1  0  0  0  0
  4  6  2  0  0  0  0
  5  7  2  0  0  0  0
  5 14  1  0  0  0  0
  8  9  2  0  0  0  0
  8 13  1  0  0  0  0
  9 12  1  0  0  0  0
 10 11  1  0  0  0  0
 10 12  2  0  0  0  0
 11 13  2  0  0  0  0
M  END
>  <Substance ID> (iss2_363)
iss2_363

>  <Molecular.Weight> (iss2_363)
183.2

>  <FW_iss2> (iss2_363)
183.2

>  <Parent.Atom.Count> (iss2_363)
14.0

>  <Parent.Molecular.Weight> (iss2_363)
183.2

>  <Rotatable.Bonds> (iss2_363)
0.0

>  <Hydrogen.Bond.Acceptors> (iss2_363)
0.0

>  <Polar.Surface.Area> (iss2_363)
39.16

>  <Lipinski.Score> (iss2_363)
0.0

>  <Canc_iss2> (iss2_363)
3.0

>  <ALogP> (iss2_363)
3.17

>  <Hydrogen.Bond.Donors> (iss2_363)
1.0

>  <ChemName_iss2> (iss2_363)
2-Aminodiphenylene oxide

>  <SMILES_iss2> (iss2_363)
o2c1ccccc1c3c2ccc(N)c3

>  <SAL_iss2> (iss2_363)
ND

>  <CAS_iss2> (iss2_363)
3693-22-9

>  <Formula_iss2> (iss2_363)
C12H9NO

$$$$
iss2_416


 16 18  0  0  0  0  0  0  0  0999 V2000
    0.6709   -3.2911    0.0000 C   0  0  0  0  0  0  0  0  0  0  0  0
    0.0000   -2.1392    0.0000 C   0  0  0  0  0  0  0  0  0  0  0  0
    0.6709   -0.9873    0.0000 C   0  0  0  0  0  0  0  0  0  0  0  0
    2.0000   -3.2911    0.0000 C   0  0  0  0  0  0  0  0  0  0  0  0
    2.6582   -2.1392    0.0000 C   0  0  0  0  0  0  0  0  0  0  0  0
    2.0000   -0.9873    0.0000 C   0  0  0  0  0  0  0  0  0  0  0  0
    2.8860   -0.0000    0.0000 O   0  0  0  0  0  0  0  0  0  0  0  0
    3.9620   -1.8607    0.0000 C   0  0  0  0  0  0  0  0  0  0  0  0
    4.1012   -0.5316    0.0000 C   0  0  0  0  0  0  0  0  0  0  0  0
    6.3923   -0.7721    0.0000 C   0  0  0  0  0  0  0  0  0  0  0  0
    6.2531   -2.1012    0.0000 C   0  0  0  0  0  0  0  0  0  0  0  0
    5.3164   -0.0000    0.0000 C   0  0  0  0  0  0  0  0  0  0  0  0
    5.0379   -2.6455    0.0000 C   0  0  0  0  0  0  0  0  0  0  0  0
    7.3290   -2.8860    0.0000 O   0  0  0  0  0  0  0  0  0  0  0  0
    7.6075   -0.2405    0.0000 N   0  0  0  0  0  0  0  0  0  0  0  0
    8.5442   -2.3417    0.0000 C   0  0  0  0  0  0  0  0  0  0  0  0
  1  2  2  0  0  0  0
  1  4  1  0  0  0  0
  2  3  1  0  0  0  0
  3  6  2  0  0  0  0
  4  5  2  0  0  0  0
  5  6  1  0  0  0  0
  5  8  1  0  0  0  0
  6  7  1  0  0  0  0
  7  9  1  0  0  0  0
  8  9  2  0  0  0  0
  8 13  1  0  0  0  0
  9 12  1  0  0  0  0
 10 11  1  0  0  0  0
 10 12  2  0  0  0  0
 10 15  1  0  0  0  0
 11 13  2  0  0  0  0
 11 14  1  0  0  0  0
 14 16  1  0  0  0  0
M  END
>  <Substance ID> (iss2_416)
iss2_416

>  <Molecular.Weight> (iss2_416)
213.2

>  <FW_iss2> (iss2_416)
213.2

>  <Parent.Atom.Count> (iss2_416)
16.0

>  <Parent.Molecular.Weight> (iss2_416)
213.2

>  <Rotatable.Bonds> (iss2_416)
1.0

>  <Hydrogen.Bond.Acceptors> (iss2_416)
1.0

>  <Polar.Surface.Area> (iss2_416)
48.39

>  <Lipinski.Score> (iss2_416)
0.0

>  <Canc_iss2> (iss2_416)
3.0

>  <ALogP> (iss2_416)
3.18

>  <Hydrogen.Bond.Donors> (iss2_416)
1.0

>  <ChemName_iss2> (iss2_416)
2-Methoxy-3-aminodibenzofuran

>  <SMILES_iss2> (iss2_416)
NC1=C(C=C2C3=C(C=CC=C3)OC2=C1)OC

>  <SAL_iss2> (iss2_416)
ND

>  <CAS_iss2> (iss2_416)
5834-17-3

>  <Formula_iss2> (iss2_416)
C13H11NO2

$$$$