
  ACD/Labs12201214412D

 15 17  0  0  0  0  0  0  0  0  1 V2000
    3.4550   -1.3267    0.0000 C   0  0  0  0  0  0  0  0  0  0  0  0
    3.4550    0.0000    0.0000 O   0  0  0  0  0  0  0  0  0  0  0  0
    4.6090   -1.9901    0.0000 C   0  0  0  0  0  0  0  0  0  0  0  0
    5.7561   -1.3267    0.0000 C   0  0  0  0  0  0  0  0  0  0  0  0
    6.9100   -1.9901    0.0000 C   0  0  0  0  0  0  0  0  0  0  0  0
    6.9100   -3.3237    0.0000 C   0  0  0  0  0  0  0  0  0  0  0  0
    5.7561   -3.9871    0.0000 C   0  0  0  0  0  0  0  0  0  0  0  0
    4.6090   -3.3237    0.0000 C   0  0  0  0  0  0  0  0  0  0  0  0
    3.4550   -3.9871    0.0000 O   0  0  0  0  0  0  0  0  0  0  0  0
    2.3010   -3.3237    0.0000 C   0  0  0  0  0  0  0  0  0  0  0  0
    1.1540   -3.9871    0.0000 C   0  0  0  0  0  0  0  0  0  0  0  0
    0.0000   -3.3237    0.0000 C   0  0  0  0  0  0  0  0  0  0  0  0
    0.0000   -1.9901    0.0000 C   0  0  0  0  0  0  0  0  0  0  0  0
    1.1540   -1.3267    0.0000 C   0  0  0  0  0  0  0  0  0  0  0  0
    2.3010   -1.9901    0.0000 C   0  0  0  0  0  0  0  0  0  0  0  0
  1  2  2  0  0  0  0
  1  3  1  0  0  0  0
  1 15  1  0  0  0  0
  3  4  1  0  0  0  0
  3  8  2  0  0  0  0
  4  5  2  0  0  0  0
  5  6  1  0  0  0  0
  6  7  2  0  0  0  0
  7  8  1  0  0  0  0
  8  9  1  0  0  0  0
  9 10  1  0  0  0  0
 10 11  2  0  0  0  0
 10 15  1  0  0  0  0
 11 12  1  0  0  0  0
 12 13  2  0  0  0  0
 13 14  1  0  0  0  0
 14 15  2  0  0  0  0
M  END
>  <ID>
1

>  <Formula>
C13H8O2

>  <FW>
196.2014

>  <Substance ID>
17276

>  <Formula_>
C21H17NO2S

>  <Name>
SA59

>  <CAS>
60883-97-8

>  <SMILES>
c1(=O)c3ccccc3(oc2ccccc12)

>  <OVERALL>
3

>  <SA60_Ames>
NO

>  <SA62_Ames>
NO

>  <SA64_Ames>
NO

>  <SA66_Ames>
NO

>  <SA58_Ames>
NO

>  <SA61_Ames>
NO

>  <SA63_Ames>
NO

>  <SA65_Ames>
NO

>  <SA67_Ames>
NO

>  <SA57_Ames>
NO

>  <SA59_Ames>
NO

>  <SA69_Ames>
NO

$$$$
iss2_568
  ACD/Labs12201214412D

 26 30  0  0  1  0  0  0  0  0  1 V2000
    0.7898   -4.8776    0.0000 O   0  0  0  0  0  0  0  0  0  0  0  0
    1.3279   -6.0926    0.0000 C   0  0  0  0  0  0  0  0  0  0  0  0
    2.6471   -5.9537    0.0000 C   0  0  0  0  0  0  0  0  0  0  0  0
    3.1938   -7.1688    0.0000 C   0  0  0  0  0  0  0  0  0  0  0  0
    2.2044   -8.0540    0.0000 C   0  0  0  0  0  0  0  0  0  0  0  0
    1.0501   -7.3944    0.0000 O   0  0  0  0  0  0  0  0  0  0  0  0
    2.9248   -4.6432    0.0000 C   0  0  0  0  0  0  0  0  0  0  0  0
    1.7705   -3.9836    0.0000 C   0  0  0  0  0  0  0  0  0  0  0  0
    1.7705   -2.6557    0.0000 C   0  0  0  0  0  0  0  0  0  0  0  0
    2.9248   -1.9875    0.0000 C   0  0  0  0  0  0  0  0  0  0  0  0
    4.0791   -3.9836    0.0000 C   0  0  0  0  0  0  0  0  0  0  0  0
    4.0791   -2.6557    0.0000 C   0  0  0  0  0  0  0  0  0  0  0  0
    5.2334   -1.9875    0.0000 C   0  0  0  0  0  0  0  0  0  0  0  0
    5.2334   -4.6432    0.0000 O   0  0  0  0  0  0  0  0  0  0  0  0
    6.3877   -3.9836    0.0000 C   0  0  0  0  0  0  0  0  0  0  0  0
    6.3877   -2.6557    0.0000 C   0  0  0  0  0  0  0  0  0  0  0  0
    7.5246   -1.9875    0.0000 C   0  0  0  0  0  0  0  0  0  0  0  0
    8.6789   -2.6557    0.0000 C   0  0  0  0  0  0  0  0  0  0  0  0
    8.6789   -3.9836    0.0000 C   0  0  0  0  0  0  0  0  0  0  0  0
    7.5246   -4.6432    0.0000 C   0  0  0  0  0  0  0  0  0  0  0  0
    2.9248   -0.6509    0.0000 O   0  0  0  0  0  0  0  0  0  0  0  0
    4.0791    0.0000    0.0000 C   0  0  0  0  0  0  0  0  0  0  0  0
    7.5246   -0.6509    0.0000 O   0  0  0  0  0  0  0  0  0  0  0  0
    5.2334   -0.6509    0.0000 O   0  0  0  0  0  0  0  0  0  0  0  0
    3.9663   -5.8149    0.0000 H   0  0  0  0  0  0  0  0  0  0  0  0
    0.0000   -6.2315    0.0000 H   0  0  0  0  0  0  0  0  0  0  0  0
  1  2  1  0  0  0  0
  1  8  1  0  0  0  0
  2  3  1  0  0  0  0
  2  6  1  0  0  0  0
  2 26  1  6  0  0  0
  3  7  1  0  0  0  0
  3  4  1  0  0  0  0
  3 25  1  6  0  0  0
  4  5  2  0  0  0  0
  5  6  1  0  0  0  0
  7  8  2  0  0  0  0
  7 11  1  0  0  0  0
  8  9  1  0  0  0  0
  9 10  2  0  0  0  0
 10 12  1  0  0  0  0
 10 21  1  0  0  0  0
 11 12  2  0  0  0  0
 11 14  1  0  0  0  0
 12 13  1  0  0  0  0
 13 16  1  0  0  0  0
 13 24  2  0  0  0  0
 14 15  1  0  0  0  0
 15 16  2  0  0  0  0
 15 20  1  0  0  0  0
 16 17  1  0  0  0  0
 17 18  2  0  0  0  0
 17 23  1  0  0  0  0
 18 19  1  0  0  0  0
 19 20  2  0  0  0  0
 21 22  1  0  0  0  0
M  END
>  <ID>
2

>  <Formula>
C18H12O6

>  <FW>
324.2843

>  <Substance ID>
iss2_568

>  <Molecular.Weight>
324.3

>  <FW_iss2>
324.3

>  <Parent.Atom.Count>
24.0

>  <Parent.Molecular.Weight>
324.3

>  <Rotatable.Bonds>
1.0

>  <Hydrogen.Bond.Acceptors>
3.0

>  <Polar.Surface.Area>
74.22

>  <Lipinski.Score>
0.0

>  <Canc_iss2>
3.0

>  <ALogP>
3.08

>  <Hydrogen.Bond.Donors>
1.0

>  <ChemName_iss2>
Sterigmatocystin

>  <SMILES_iss2>
O=C1C2=C(C=C3C(=C2OC4=CC=CC(=C14)O)C5C(O3)OC=C5)OC

>  <SAL_iss2>
3

>  <CAS_iss2>
10048-13-2

>  <Formula_iss2>
C18H12O6

$$$$
iss2_724
  ACD/Labs12201214412D

 24 27  0  0  0  0  0  0  0  0  1 V2000
    9.1394   -2.2922    0.0000 C   0  0  0  0  0  0  0  0  0  0  0  0
    9.7957   -1.1363    0.0000 C   0  0  0  0  0  0  0  0  0  0  0  0
    9.1394    0.0000    0.0000 C   0  0  0  0  0  0  0  0  0  0  0  0
    7.7974    0.0000    0.0000 C   0  0  0  0  0  0  0  0  0  0  0  0
    7.1411   -1.1363    0.0000 C   0  0  0  0  0  0  0  0  0  0  0  0
    7.7974   -2.2922    0.0000 C   0  0  0  0  0  0  0  0  0  0  0  0
    5.1428   -2.2922    0.0000 C   0  0  0  0  0  0  0  0  0  0  0  0
    5.8089   -3.4579    0.0000 C   0  0  0  0  0  0  0  0  0  0  0  0
    7.1411   -3.4579    0.0000 C   0  0  0  0  0  0  0  0  0  0  0  0
    5.8089   -1.1363    0.0000 N   0  0  0  0  0  0  0  0  0  0  0  0
    3.8105   -2.2922    0.0000 C   0  0  0  0  0  0  0  0  0  0  0  0
    3.1542   -3.4579    0.0000 C   0  0  0  0  0  0  0  0  0  0  0  0
    3.8105   -4.5942    0.0000 C   0  0  0  0  0  0  0  0  0  0  0  0
    5.1428   -4.5942    0.0000 C   0  0  0  0  0  0  0  0  0  0  0  0
    1.8122   -3.4579    0.0000 O   0  0  0  0  0  0  0  0  0  0  0  0
    3.1542   -1.1363    0.0000 C   0  0  0  0  0  0  0  0  0  0  0  0
    1.8122   -1.1363    0.0000 C   0  0  0  0  0  0  0  0  0  0  0  0
    1.1559   -2.2922    0.0000 C   0  0  0  0  0  0  0  0  0  0  0  0
    0.0000   -1.6359    0.0000 C   0  0  0  0  0  0  0  0  0  0  0  0
    0.0000   -2.9583    0.0000 C   0  0  0  0  0  0  0  0  0  0  0  0
    5.8089   -5.7501    0.0000 O   0  0  0  0  0  0  0  0  0  0  0  0
    5.1428   -6.8962    0.0000 C   0  0  0  0  0  0  0  0  0  0  0  0
    5.1428    0.0000    0.0000 C   0  0  0  0  0  0  0  0  0  0  0  0
    7.7974   -4.5942    0.0000 O   0  0  0  0  0  0  0  0  0  0  0  0
  1  2  2  0  0  0  0
  1  6  1  0  0  0  0
  2  3  1  0  0  0  0
  3  4  2  0  0  0  0
  4  5  1  0  0  0  0
  5  6  2  0  0  0  0
  5 10  1  0  0  0  0
  6  9  1  0  0  0  0
  7  8  2  0  0  0  0
  7 10  1  0  0  0  0
  7 11  1  0  0  0  0
  8  9  1  0  0  0  0
  8 14  1  0  0  0  0
  9 24  2  0  0  0  0
 10 23  1  0  0  0  0
 11 12  2  0  0  0  0
 11 16  1  0  0  0  0
 12 13  1  0  0  0  0
 12 15  1  0  0  0  0
 13 14  2  0  0  0  0
 14 21  1  0  0  0  0
 15 18  1  0  0  0  0
 16 17  2  0  0  0  0
 17 18  1  0  0  0  0
 18 19  1  0  0  0  0
 18 20  1  0  0  0  0
 21 22  1  0  0  0  0
M  END
>  <ID>
3

>  <Formula>
C20H19NO3

>  <FW>
321.3698

>  <Substance ID>
iss2_724

>  <Molecular.Weight>
321.4

>  <FW_iss2>
321.4

>  <Parent.Atom.Count>
24.0

>  <Parent.Molecular.Weight>
321.4

>  <Rotatable.Bonds>
1.0

>  <Hydrogen.Bond.Acceptors>
2.0

>  <Polar.Surface.Area>
38.77

>  <Lipinski.Score>
0.0

>  <Canc_iss2>
3.0

>  <ALogP>
4.19

>  <Hydrogen.Bond.Donors>
0.0

>  <ChemName_iss2>
Acronycine

>  <SMILES_iss2>
CN1C2=C(C(OC)=CC3=C2C=CC(O3)(C)C)C(C4=C1C=CC=C4)=O

>  <SAL_iss2>
ND

>  <CAS_iss2>
7008-42-6

>  <Formula_iss2>
C20H19NO3

$$$$
iss2_867
  ACD/Labs12201214412D

 28 32  0  0  0  0  0  0  0  0  1 V2000
    1.1473   -6.6541    0.0000 O   0  0  0  0  0  0  0  0  0  0  0  0
    2.3045   -5.9857    0.0000 C   0  0  0  0  0  0  0  0  0  0  0  0
    3.4517   -6.6541    0.0000 C   0  0  0  0  0  0  0  0  0  0  0  0
    4.6090   -5.9857    0.0000 C   0  0  0  0  0  0  0  0  0  0  0  0
    5.7562   -6.6541    0.0000 C   0  0  0  0  0  0  0  0  0  0  0  0
    5.7562   -7.9809    0.0000 C   0  0  0  0  0  0  0  0  0  0  0  0
    4.6090   -8.6493    0.0000 C   0  0  0  0  0  0  0  0  0  0  0  0
    3.4517   -7.9809    0.0000 C   0  0  0  0  0  0  0  0  0  0  0  0
    2.3045   -8.6493    0.0000 O   0  0  0  0  0  0  0  0  0  0  0  0
    2.3045   -9.9761    0.0000 C   0  0  0  0  0  0  0  0  0  0  0  0
    7.0232   -8.3899    0.0000 O   0  0  0  0  0  0  0  0  0  0  0  0
    7.8113   -7.3125    0.0000 C   0  0  0  0  0  0  0  0  0  0  0  0
    7.0232   -6.2351    0.0000 C   0  0  0  0  0  0  0  0  0  0  0  0
    7.8113   -5.1676    0.0000 C   0  0  0  0  0  0  0  0  0  0  0  0
    9.0683   -5.5767    0.0000 C   0  0  0  0  0  0  0  0  0  0  0  0
    9.0683   -6.9035    0.0000 O   0  0  0  0  0  0  0  0  0  0  0  0
    4.6090   -4.6589    0.0000 O   0  0  0  0  0  0  0  0  0  0  0  0
    3.4517   -3.9905    0.0000 C   0  0  0  0  0  0  0  0  0  0  0  0
    2.3045   -4.6589    0.0000 C   0  0  0  0  0  0  0  0  0  0  0  0
    1.1473   -3.9905    0.0000 C   0  0  0  0  0  0  0  0  0  0  0  0
    1.1473   -2.6636    0.0000 C   0  0  0  0  0  0  0  0  0  0  0  0
    2.3045   -1.9952    0.0000 C   0  0  0  0  0  0  0  0  0  0  0  0
    3.4517   -2.6636    0.0000 C   0  0  0  0  0  0  0  0  0  0  0  0
    4.6090   -1.9952    0.0000 O   0  0  0  0  0  0  0  0  0  0  0  0
    4.6090   -0.6684    0.0000 C   0  0  0  0  0  0  0  0  0  0  0  0
    2.3045   -0.6684    0.0000 O   0  0  0  0  0  0  0  0  0  0  0  0
    1.1473    0.0000    0.0000 C   0  0  0  0  0  0  0  0  0  0  0  0
    0.0000   -4.6589    0.0000 O   0  0  0  0  0  0  0  0  0  0  0  0
  1  2  2  0  0  0  0
  2  3  1  0  0  0  0
  2 19  1  0  0  0  0
  3  4  2  0  0  0  0
  3  8  1  0  0  0  0
  4  5  1  0  0  0  0
  4 17  1  0  0  0  0
  5  6  2  0  0  0  0
  5 13  1  0  0  0  0
  6  7  1  0  0  0  0
  6 11  1  0  0  0  0
  7  8  2  0  0  0  0
  8  9  1  0  0  0  0
  9 10  1  0  0  0  0
 11 12  1  0  0  0  0
 12 13  1  0  0  0  0
 12 16  1  0  0  0  0
 13 14  1  0  0  0  0
 14 15  2  0  0  0  0
 15 16  1  0  0  0  0
 17 18  1  0  0  0  0
 18 19  2  0  0  0  0
 18 23  1  0  0  0  0
 19 20  1  0  0  0  0
 20 21  2  0  0  0  0
 20 28  1  0  0  0  0
 21 22  1  0  0  0  0
 22 23  2  0  0  0  0
 22 26  1  0  0  0  0
 23 24  1  0  0  0  0
 24 25  1  0  0  0  0
 26 27  1  0  0  0  0
M  END
>  <ID>
4

>  <Formula>
C20H16O8

>  <FW>
384.3362

>  <Substance ID>
iss2_867

>  <Molecular.Weight>
384.3

>  <FW_iss2>
384.3

>  <Parent.Atom.Count>
28.0

>  <Parent.Molecular.Weight>
384.3

>  <Rotatable.Bonds>
3.0

>  <Hydrogen.Bond.Acceptors>
5.0

>  <Polar.Surface.Area>
92.68

>  <Lipinski.Score>
0.0

>  <Canc_iss2>
3.0

>  <ALogP>
3.1

>  <Hydrogen.Bond.Donors>
1.0

>  <ChemName_iss2>
5,6-Dimethoxysterigmatocystin

>  <SMILES_iss2>
O=C1C2=C(C3=C(C=C2OC)OC4C3C=CO4)OC5=C1C(=CC(=C5OC)OC)O

>  <SAL_iss2>
3

>  <CAS_iss2>
65176-75-2

>  <Formula_iss2>
C20H16O8

$$$$
