iss2_552
csCF1100/12201114012D

 22 24  0  0  0  0  0  0  0  0999 V2000
    5.9788   -2.3054    0.0000 C   0  0  0  0  0  0  0  0  0  0  0  0
    6.6501   -1.1527    0.0000 C   0  0  0  0  0  0  0  0  0  0  0  0
    8.6388   -2.3054    0.0000 C   0  0  0  0  0  0  0  0  0  0  0  0
    7.9802   -3.4581    0.0000 C   0  0  0  0  0  0  0  0  0  0  0  0
    7.9802   -1.1527    0.0000 C   0  0  0  0  0  0  0  0  0  0  0  0
    6.6501   -3.4581    0.0000 C   0  0  0  0  0  0  0  0  0  0  0  0
    0.6587   -4.6108    0.0000 C   0  0  0  0  0  0  0  0  0  0  0  0
    0.0000   -3.4581    0.0000 C   0  0  0  0  0  0  0  0  0  0  0  0
    0.6587   -2.3054    0.0000 C   0  0  0  0  0  0  0  0  0  0  0  0
    1.9887   -4.6108    0.0000 C   0  0  0  0  0  0  0  0  0  0  0  0
    2.6601   -3.4581    0.0000 C   0  0  0  0  0  0  0  0  0  0  0  0
    1.9887   -2.3054    0.0000 C   0  0  0  0  0  0  0  0  0  0  0  0
    2.6601   -1.1527    0.0000 C   0  0  0  0  0  0  0  0  0  0  0  0
    3.9901   -1.1527    0.0000 C   0  0  0  0  0  0  0  0  0  0  0  0
    4.6488   -2.3054    0.0000 C   0  0  0  0  0  0  0  0  0  0  0  0
    3.9901   -3.4581    0.0000 O   0  0  0  0  0  0  0  0  0  0  0  0
    0.0000   -5.7635    0.0000 O   0  0  0  0  0  0  0  0  0  0  0  0
    0.0000   -1.1527    0.0000 O   0  0  0  0  0  0  0  0  0  0  0  0
    1.9887    0.0000    0.0000 O   0  0  0  0  0  0  0  0  0  0  0  0
    9.9689   -2.3054    0.0000 O   0  0  0  0  0  0  0  0  0  0  0  0
    8.6388   -4.6108    0.0000 O   0  0  0  0  0  0  0  0  0  0  0  0
    4.6488    0.0000    0.0000 O   0  0  0  0  0  0  0  0  0  0  0  0
  1  2  2  0        0
  1  6  1  0        0
  1 15  1  0        0
  2  5  1  0        0
  3  4  1  0        0
  3  5  2  0        0
  3 20  1  0        0
  4  6  2  0        0
  4 21  1  0        0
  7  8  2  0        0
  7 10  1  0        0
  7 17  1  0        0
  8  9  1  0        0
  9 12  2  0        0
  9 18  1  0        0
 10 11  2  0        0
 11 12  1  0        0
 11 16  1  0        0
 12 13  1  0        0
 13 14  1  0        0
 13 19  2  0        0
 14 15  2  0        0
 14 22  1  0        0
 15 16  1  0        0
M  END
>  <MolfileName> (1)
iss2_552

>  <cdk_Title> (1)
iss2_552

>  <Substance ID> (1)
iss2_552

>  <Molecular_Weight> (1)
302.2

>  <FW_iss2> (1)
302.2

>  <Parent_Atom_Count> (1)
22.0

>  <Parent_Molecular_Weight> (1)
302.2

>  <Rotatable_Bonds> (1)
1.0

>  <Hydrogen_Bond_Acceptors> (1)
6.0

>  <Polar_Surface_Area> (1)
127.4

>  <Lipinski_Score> (1)
0.0

>  <Canc_iss2> (1)
3

>  <ALogP> (1)
2.01

>  <Hydrogen_Bond_Donors> (1)
5.0

>  <ChemName_iss2> (1)
Quercetin

>  <SMILES_iss2> (1)
O=C1C2=C(C=C(C=C2O)O)OC(=C1O)C3=CC(=C(C=C3)O)O

>  <SAL_iss2> (1)
3

>  <CAS_iss2> (1)
117-39-5

>  <Formula_iss2> (1)
C15H10O7

>  <Structural Alert for genotoxic carcinogenicity> (1)
NO

>  <Structural Alert for nongenotoxic carcinogenicity> (1)
YES

>  <SA42_nogen> (1)
NO

>  <SA47_nogen> (1)
NO

>  <SA44_nogen> (1)
NO

>  <SA41_nogen> (1)
NO

>  <SA49_nogen> (1)
NO

>  <SA46_nogen> (1)
NO

>  <SA43_nogen> (1)
NO

>  <SA40_nogen> (1)
NO

>  <SA48_nogen> (1)
YES

>  <SA45_nogen> (1)
NO

>  <SA38_gen> (1)
NO

>  <SA50_nogen> (1)
NO

>  <SA55_nogen> (1)
NO

>  <SA52_nogen> (1)
NO

>  <SA54_nogen> (1)
NO

>  <SA51_nogen> (1)
NO

>  <SA56_nogen> (1)
NO

>  <SA53_nogen> (1)
NO

>  <SA39_gen_and_nogen> (1)
NO

>  <SA37_gen> (1)
NO

$$$$
