iss2_52
csCF1100/12201113542D

 26 25  0  0  0  0  0  0  0  0999 V2000
    0.0000   -5.9763    0.0000 C   0  0  0  0  0  0  0  0  0  0  0  0
    0.0000   -4.6497    0.0000 C   0  0  0  0  0  0  0  0  0  0  0  0
    1.1463   -3.9928    0.0000 C   0  0  0  0  0  0  0  0  0  0  0  0
    1.1463   -2.6662    0.0000 C   0  0  0  0  0  0  0  0  0  0  0  0
    2.3055   -1.9964    0.0000 C   0  0  3  0  0  0  0  0  0  0  0  0
    3.4518   -2.6662    0.0000 C   0  0  0  0  0  0  0  0  0  0  0  0
    4.5981   -1.9964    0.0000 O   0  0  0  0  0  0  0  0  0  0  0  0
    5.7445   -2.6662    0.0000 C   0  0  0  0  0  0  0  0  0  0  0  0
    5.7445   -3.9928    0.0000 O   0  0  0  0  0  0  0  0  0  0  0  0
    6.9037   -1.9964    0.0000 C   0  0  0  0  0  0  0  0  0  0  0  0
    8.0500   -2.6662    0.0000 C   0  0  0  0  0  0  0  0  0  0  0  0
    9.1963   -1.9964    0.0000 C   0  0  0  0  0  0  0  0  0  0  0  0
   10.3555   -2.6662    0.0000 C   0  0  0  0  0  0  0  0  0  0  0  0
   11.5018   -1.9964    0.0000 C   0  0  0  0  0  0  0  0  0  0  0  0
   11.5018   -0.6698    0.0000 O   0  0  0  0  0  0  0  0  0  0  0  0
   12.6481   -2.6662    0.0000 O   0  0  0  0  0  0  0  0  0  0  0  0
   13.7944   -1.9964    0.0000 C   0  0  0  0  0  0  0  0  0  0  0  0
   14.9536   -2.6662    0.0000 C   0  0  3  0  0  0  0  0  0  0  0  0
   16.0999   -1.9964    0.0000 C   0  0  0  0  0  0  0  0  0  0  0  0
   17.2463   -2.6662    0.0000 C   0  0  0  0  0  0  0  0  0  0  0  0
   18.4055   -1.9964    0.0000 C   0  0  0  0  0  0  0  0  0  0  0  0
   19.5518   -2.6662    0.0000 C   0  0  0  0  0  0  0  0  0  0  0  0
    2.3055   -0.6698    0.0000 C   0  0  0  0  0  0  0  0  0  0  0  0
    1.1463    0.0000    0.0000 C   0  0  0  0  0  0  0  0  0  0  0  0
   14.9536   -3.9928    0.0000 C   0  0  0  0  0  0  0  0  0  0  0  0
   13.7944   -4.6497    0.0000 C   0  0  0  0  0  0  0  0  0  0  0  0
  1  2  1  0        0
  2  3  1  0        0
  3  4  1  0        0
  4  5  1  0        0
  5  6  1  0        0
  5 23  1  0        0
  6  7  1  0        0
  7  8  1  0        0
  8  9  2  0        0
  8 10  1  0        0
 10 11  1  0        0
 11 12  1  0        0
 12 13  1  0        0
 13 14  1  0        0
 14 15  2  0        0
 14 16  1  0        0
 16 17  1  0        0
 17 18  1  0        0
 18 19  1  0        0
 18 25  1  0        0
 19 20  1  0        0
 20 21  1  0        0
 21 22  1  0        0
 23 24  1  0        0
 25 26  1  0        0
M  END
>  <MolfileName> (1)
iss2_52

>  <cdk_Title> (1)
iss2_52

>  <Substance ID> (1)
iss2_52

>  <Molecular_Weight> (1)
370.6

>  <FW_iss2> (1)
370.6

>  <Parent_Atom_Count> (1)
26.0

>  <Parent_Molecular_Weight> (1)
370.6

>  <Rotatable_Bonds> (1)
19.0

>  <Hydrogen_Bond_Acceptors> (1)
2.0

>  <Polar_Surface_Area> (1)
52.6

>  <Lipinski_Score> (1)
1.0

>  <Canc_iss2> (1)
3

>  <ALogP> (1)
6.07

>  <Hydrogen_Bond_Donors> (1)
0.0

>  <ChemName_iss2> (1)
Di-(2-Ethylhexyl) Adipate

>  <SMILES_iss2> (1)
CCC(COC(=O)CCCCC(=O)OCC(CCCC)CC)CCCC

>  <SAL_iss2> (1)
1

>  <CAS_iss2> (1)
103-23-1

>  <Formula_iss2> (1)
C22H42O4

>  <Structural Alert for genotoxic carcinogenicity> (1)
NO

>  <Structural Alert for nongenotoxic carcinogenicity> (1)
YES

>  <SA42_nogen> (1)
YES

>  <SA47_nogen> (1)
NO

>  <SA44_nogen> (1)
NO

>  <SA41_nogen> (1)
NO

>  <SA49_nogen> (1)
NO

>  <SA46_nogen> (1)
NO

>  <SA43_nogen> (1)
NO

>  <SA40_nogen> (1)
NO

>  <SA48_nogen> (1)
NO

>  <SA45_nogen> (1)
NO

>  <SA38_gen> (1)
NO

>  <SA50_nogen> (1)
NO

>  <SA55_nogen> (1)
NO

>  <SA52_nogen> (1)
NO

>  <SA54_nogen> (1)
NO

>  <SA51_nogen> (1)
NO

>  <SA56_nogen> (1)
NO

>  <SA53_nogen> (1)
NO

>  <SA39_gen_and_nogen> (1)
NO

>  <SA37_gen> (1)
NO

$$$$
iss2_53
csCF1100/12201113542D

 28 28  0  0  0  0  0  0  0  0999 V2000
    2.2667   -5.5898    0.0000 C   0  0  0  0  0  0  0  0  0  0  0  0
    2.2581   -4.3380    0.0000 C   0  0  0  0  0  0  0  0  0  0  0  0
    3.4496   -6.2900    0.0000 C   0  0  0  0  0  0  0  0  0  0  0  0
    3.4310   -3.6225    0.0000 C   0  0  0  0  0  0  0  0  0  0  0  0
    3.5184   -2.3136    0.0000 O   0  0  0  0  0  0  0  0  0  0  0  0
    3.5542   -7.5970    0.0000 O   0  0  0  0  0  0  0  0  0  0  0  0
    4.3399   -5.7367    0.0000 O   0  0  0  0  0  0  0  0  0  0  0  0
    4.3282   -4.1642    0.0000 O   0  0  0  0  0  0  0  0  0  0  0  0
    4.7987   -8.1172    0.0000 C   0  0  0  0  0  0  0  0  0  0  0  0
    4.7562   -1.7771    0.0000 C   0  0  0  0  0  0  0  0  0  0  0  0
    1.0852   -6.2640    0.0000 C   0  0  0  0  0  0  0  0  0  0  0  0
    1.0678   -3.6795    0.0000 C   0  0  0  0  0  0  0  0  0  0  0  0
    5.9774   -7.9739    0.0000 C   0  0  3  0  0  0  0  0  0  0  0  0
    5.9354   -1.9056    0.0000 C   0  0  3  0  0  0  0  0  0  0  0  0
    6.2483   -3.3341    0.0000 C   0  0  0  0  0  0  0  0  0  0  0  0
    6.2733   -6.5412    0.0000 C   0  0  0  0  0  0  0  0  0  0  0  0
    6.6834   -0.8842    0.0000 C   0  0  0  0  0  0  0  0  0  0  0  0
    7.0944   -8.6513    0.0000 C   0  0  0  0  0  0  0  0  0  0  0  0
    8.6899    0.0000    0.0000 C   0  0  0  0  0  0  0  0  0  0  0  0
    9.2873   -8.6986    0.0000 C   0  0  0  0  0  0  0  0  0  0  0  0
    7.9419   -1.0213    0.0000 C   0  0  0  0  0  0  0  0  0  0  0  0
    8.2045   -8.0419    0.0000 C   0  0  0  0  0  0  0  0  0  0  0  0
    0.0000   -4.3014    0.0000 C   0  0  0  0  0  0  0  0  0  0  0  0
    0.0091   -5.6565    0.0000 C   0  0  0  0  0  0  0  0  0  0  0  0
    7.2636   -6.1923    0.0000 C   0  0  0  0  0  0  0  0  0  0  0  0
    7.2364   -3.6707    0.0000 C   0  0  0  0  0  0  0  0  0  0  0  0
   10.3973   -8.0892    0.0000 C   0  0  0  0  0  0  0  0  0  0  0  0
    9.9484   -0.1371    0.0000 C   0  0  0  0  0  0  0  0  0  0  0  0
  1  2  2  0        0
  1  3  1  0        0
  1 11  1  0        0
  2  4  1  0        0
  2 12  1  0        0
  3  6  1  0        0
  3  7  2  0        0
  4  5  1  0        0
  4  8  2  0        0
  5 10  1  0        0
  6  9  1  0        0
  9 13  1  0        0
 10 14  1  0        0
 11 24  2  0        0
 12 23  2  0        0
 13 16  1  0        0
 13 18  1  0        0
 14 15  1  0        0
 14 17  1  0        0
 15 26  1  0        0
 16 25  1  0        0
 17 21  1  0        0
 18 22  1  0        0
 19 21  1  0        0
 19 28  1  0        0
 20 22  1  0        0
 20 27  1  0        0
 23 24  1  0        0
M  END
>  <MolfileName> (2)
iss2_53

>  <cdk_Title> (2)
iss2_53

>  <Substance ID> (2)
iss2_53

>  <Molecular_Weight> (2)
390.6

>  <FW_iss2> (2)
390.6

>  <Parent_Atom_Count> (2)
28.0

>  <Parent_Molecular_Weight> (2)
390.6

>  <Rotatable_Bonds> (2)
16.0

>  <Hydrogen_Bond_Acceptors> (2)
2.0

>  <Polar_Surface_Area> (2)
52.6

>  <Lipinski_Score> (2)
1.0

>  <Canc_iss2> (2)
3

>  <ALogP> (2)
6.43

>  <Hydrogen_Bond_Donors> (2)
0.0

>  <ChemName_iss2> (2)
bis(2-Ethylhexyl) Phthalate 

>  <SMILES_iss2> (2)
O=C(C1=C(C=CC=C1)C(=O)OCC(CCCC)CC)OCC(CCCC)CC

>  <SAL_iss2> (2)
1

>  <CAS_iss2> (2)
117-81-7

>  <Formula_iss2> (2)
C24H38O4

>  <Structural Alert for genotoxic carcinogenicity> (2)
NO

>  <Structural Alert for nongenotoxic carcinogenicity> (2)
YES

>  <SA42_nogen> (2)
YES

>  <SA47_nogen> (2)
NO

>  <SA44_nogen> (2)
NO

>  <SA41_nogen> (2)
NO

>  <SA49_nogen> (2)
NO

>  <SA46_nogen> (2)
NO

>  <SA43_nogen> (2)
NO

>  <SA40_nogen> (2)
NO

>  <SA48_nogen> (2)
NO

>  <SA45_nogen> (2)
NO

>  <SA38_gen> (2)
NO

>  <SA50_nogen> (2)
NO

>  <SA55_nogen> (2)
NO

>  <SA52_nogen> (2)
NO

>  <SA54_nogen> (2)
NO

>  <SA51_nogen> (2)
NO

>  <SA56_nogen> (2)
NO

>  <SA53_nogen> (2)
NO

>  <SA39_gen_and_nogen> (2)
NO

>  <SA37_gen> (2)
NO

$$$$
iss2_72
csCF1100/12201113542D

 23 24  0  0  0  0  0  0  0  0999 V2000
    3.9845   -2.2968    0.0000 O   0  0  0  0  0  0  0  0  0  0  0  0
    2.6521   -2.2968    0.0000 C   0  0  0  0  0  0  0  0  0  0  0  0
    1.9922   -1.1547    0.0000 C   0  0  0  0  0  0  0  0  0  0  0  0
    0.6598   -1.1547    0.0000 C   0  0  0  0  0  0  0  0  0  0  0  0
    0.0000    0.0000    0.0000 C   0  0  0  0  0  0  0  0  0  0  0  0
    4.6443   -3.4515    0.0000 C   0  0  0  0  0  0  0  0  0  0  0  0
    3.9845   -4.6062    0.0000 O   0  0  0  0  0  0  0  0  0  0  0  0
    7.9689   -2.2968    0.0000 C   0  0  0  0  0  0  0  0  0  0  0  0
    8.6415   -3.4515    0.0000 C   0  0  0  0  0  0  0  0  0  0  0  0
    6.6492   -4.6062    0.0000 C   0  0  0  0  0  0  0  0  0  0  0  0
    5.9767   -3.4515    0.0000 C   0  0  0  0  0  0  0  0  0  0  0  0
    7.9689   -4.6062    0.0000 C   0  0  0  0  0  0  0  0  0  0  0  0
    6.6492   -2.2968    0.0000 C   0  0  0  0  0  0  0  0  0  0  0  0
    5.9767   -5.7610    0.0000 C   0  0  0  0  0  0  0  0  0  0  0  0
    6.6492   -6.9030    0.0000 O   0  0  0  0  0  0  0  0  0  0  0  0
    4.6443   -5.7610    0.0000 O   0  0  0  0  0  0  0  0  0  0  0  0
    5.9767   -8.0578    0.0000 C   0  0  0  0  0  0  0  0  0  0  0  0
    6.6492   -9.2125    0.0000 C   0  0  0  0  0  0  0  0  0  0  0  0
    7.9689   -9.2125    0.0000 C   0  0  0  0  0  0  0  0  0  0  0  0
    7.9689  -11.5093    0.0000 C   0  0  0  0  0  0  0  0  0  0  0  0
    6.6492  -11.5093    0.0000 C   0  0  0  0  0  0  0  0  0  0  0  0
    8.6415  -10.3672    0.0000 C   0  0  0  0  0  0  0  0  0  0  0  0
    5.9767  -10.3672    0.0000 C   0  0  0  0  0  0  0  0  0  0  0  0
  1  2  1  0        0
  1  6  1  0        0
  2  3  1  0        0
  3  4  1  0        0
  4  5  1  0        0
  6  7  2  0        0
  6 11  1  0        0
  8  9  2  0        0
  8 13  1  0        0
  9 12  1  0        0
 10 11  1  0        0
 10 12  2  0        0
 10 14  1  0        0
 11 13  2  0        0
 14 15  1  0        0
 14 16  2  0        0
 15 17  1  0        0
 17 18  1  0        0
 18 19  2  0        0
 18 23  1  0        0
 19 22  1  0        0
 20 21  1  0        0
 20 22  2  0        0
 21 23  2  0        0
M  END
>  <MolfileName> (3)
iss2_72

>  <cdk_Title> (3)
iss2_72

>  <Substance ID> (3)
iss2_72

>  <Molecular_Weight> (3)
312.4

>  <FW_iss2> (3)
312.4

>  <Parent_Atom_Count> (3)
23.0

>  <Parent_Molecular_Weight> (3)
312.4

>  <Rotatable_Bonds> (3)
9.0

>  <Hydrogen_Bond_Acceptors> (3)
2.0

>  <Polar_Surface_Area> (3)
52.6

>  <Lipinski_Score> (3)
0.0

>  <Canc_iss2> (3)
3

>  <ALogP> (3)
4.0

>  <Hydrogen_Bond_Donors> (3)
0.0

>  <ChemName_iss2> (3)
Butyl Benzyl Phthalate

>  <SMILES_iss2> (3)
C1(=C(C=CC=C1)C(OCCCC)=O)C(OCC2=CC=CC=C2)=O

>  <SAL_iss2> (3)
1

>  <CAS_iss2> (3)
85-68-7

>  <Formula_iss2> (3)
C19H20O4

>  <Structural Alert for genotoxic carcinogenicity> (3)
NO

>  <Structural Alert for nongenotoxic carcinogenicity> (3)
YES

>  <SA42_nogen> (3)
YES

>  <SA47_nogen> (3)
NO

>  <SA44_nogen> (3)
NO

>  <SA41_nogen> (3)
NO

>  <SA49_nogen> (3)
NO

>  <SA46_nogen> (3)
NO

>  <SA43_nogen> (3)
NO

>  <SA40_nogen> (3)
NO

>  <SA48_nogen> (3)
NO

>  <SA45_nogen> (3)
NO

>  <SA38_gen> (3)
NO

>  <SA50_nogen> (3)
NO

>  <SA55_nogen> (3)
NO

>  <SA52_nogen> (3)
NO

>  <SA54_nogen> (3)
NO

>  <SA51_nogen> (3)
NO

>  <SA56_nogen> (3)
NO

>  <SA53_nogen> (3)
NO

>  <SA39_gen_and_nogen> (3)
NO

>  <SA37_gen> (3)
NO

$$$$
iss2_73
csCF1100/12201113542D

 18 18  0  0  0  0  0  0  0  0999 V2000
    6.9164    0.0000    0.0000 C   0  0  0  0  0  0  0  0  0  0  0  0
    8.0628   -0.6623    0.0000 C   0  0  0  0  0  0  0  0  0  0  0  0
    6.9164   -2.6621    0.0000 C   0  0  0  0  0  0  0  0  0  0  0  0
    5.7573   -1.9998    0.0000 C   0  0  0  0  0  0  0  0  0  0  0  0
    8.0628   -1.9998    0.0000 C   0  0  0  0  0  0  0  0  0  0  0  0
    5.7573   -0.6623    0.0000 C   0  0  0  0  0  0  0  0  0  0  0  0
    4.6109   -2.6621    0.0000 C   0  0  0  0  0  0  0  0  0  0  0  0
    6.9164   -3.9868    0.0000 C   0  0  0  0  0  0  0  0  0  0  0  0
    4.6109   -3.9868    0.0000 O   0  0  0  0  0  0  0  0  0  0  0  0
    5.7573   -4.6491    0.0000 O   0  0  0  0  0  0  0  0  0  0  0  0
    3.4646   -1.9998    0.0000 O   0  0  0  0  0  0  0  0  0  0  0  0
    8.0628   -4.6491    0.0000 O   0  0  0  0  0  0  0  0  0  0  0  0
    8.0628   -5.9866    0.0000 C   0  0  0  0  0  0  0  0  0  0  0  0
    9.2219   -6.6489    0.0000 C   0  0  0  0  0  0  0  0  0  0  0  0
    2.3055   -2.6621    0.0000 C   0  0  0  0  0  0  0  0  0  0  0  0
    1.1591   -1.9998    0.0000 C   0  0  0  0  0  0  0  0  0  0  0  0
    0.0000   -2.6621    0.0000 C   0  0  0  0  0  0  0  0  0  0  0  0
    9.2219   -7.9736    0.0000 C   0  0  0  0  0  0  0  0  0  0  0  0
  1  2  2  0        0
  1  6  1  0        0
  2  5  1  0        0
  3  4  1  0        0
  3  5  2  0        0
  3  8  1  0        0
  4  6  2  0        0
  4  7  1  0        0
  7  9  2  0        0
  7 11  1  0        0
  8 10  2  0        0
  8 12  1  0        0
 11 15  1  0        0
 12 13  1  0        0
 13 14  1  0        0
 14 18  2  0        0
 15 16  1  0        0
 16 17  2  0        0
M  END
>  <MolfileName> (4)
iss2_73

>  <cdk_Title> (4)
iss2_73

>  <Substance ID> (4)
iss2_73

>  <Molecular_Weight> (4)
246.3

>  <FW_iss2> (4)
246.3

>  <Parent_Atom_Count> (4)
18.0

>  <Parent_Molecular_Weight> (4)
246.3

>  <Rotatable_Bonds> (4)
8.0

>  <Hydrogen_Bond_Acceptors> (4)
2.0

>  <Polar_Surface_Area> (4)
52.6

>  <Lipinski_Score> (4)
0.0

>  <Canc_iss2> (4)
2

>  <ALogP> (4)
2.37

>  <Hydrogen_Bond_Donors> (4)
0.0

>  <ChemName_iss2> (4)
Diallyl Phthalate

>  <SMILES_iss2> (4)
O=C(C1=C(C=CC=C1)C(=O)OCC=C)OCC=C

>  <SAL_iss2> (4)
1

>  <CAS_iss2> (4)
131-17-9

>  <Formula_iss2> (4)
C14H14O4

>  <Structural Alert for genotoxic carcinogenicity> (4)
NO

>  <Structural Alert for nongenotoxic carcinogenicity> (4)
YES

>  <SA42_nogen> (4)
YES

>  <SA47_nogen> (4)
NO

>  <SA44_nogen> (4)
NO

>  <SA41_nogen> (4)
NO

>  <SA49_nogen> (4)
NO

>  <SA46_nogen> (4)
NO

>  <SA43_nogen> (4)
NO

>  <SA40_nogen> (4)
NO

>  <SA48_nogen> (4)
NO

>  <SA45_nogen> (4)
NO

>  <SA38_gen> (4)
NO

>  <SA50_nogen> (4)
NO

>  <SA55_nogen> (4)
NO

>  <SA52_nogen> (4)
NO

>  <SA54_nogen> (4)
NO

>  <SA51_nogen> (4)
NO

>  <SA56_nogen> (4)
NO

>  <SA53_nogen> (4)
NO

>  <SA39_gen_and_nogen> (4)
NO

>  <SA37_gen> (4)
NO

$$$$
iss2_705
csCF1100/12201113542D

 16 16  0  0  0  0  0  0  0  0999 V2000
    6.9164   -5.9917    0.0000 C   0  0  0  0  0  0  0  0  0  0  0  0
    6.9164   -4.6616    0.0000 O   0  0  0  0  0  0  0  0  0  0  0  0
    5.7637   -3.9902    0.0000 C   0  0  0  0  0  0  0  0  0  0  0  0
    4.6109   -4.6616    0.0000 O   0  0  0  0  0  0  0  0  0  0  0  0
    8.0691   -6.6504    0.0000 C   0  0  0  0  0  0  0  0  0  0  0  0
    3.4582   -2.6602    0.0000 C   0  0  0  0  0  0  0  0  0  0  0  0
    2.3055   -2.0015    0.0000 O   0  0  0  0  0  0  0  0  0  0  0  0
    3.4582   -3.9902    0.0000 O   0  0  0  0  0  0  0  0  0  0  0  0
    1.1527   -2.6602    0.0000 C   0  0  0  0  0  0  0  0  0  0  0  0
    0.0000   -2.0015    0.0000 C   0  0  0  0  0  0  0  0  0  0  0  0
    5.7637   -2.6602    0.0000 C   0  0  0  0  0  0  0  0  0  0  0  0
    4.6109   -2.0015    0.0000 C   0  0  0  0  0  0  0  0  0  0  0  0
    5.7637    0.0000    0.0000 C   0  0  0  0  0  0  0  0  0  0  0  0
    6.9164   -0.6714    0.0000 C   0  0  0  0  0  0  0  0  0  0  0  0
    6.9164   -2.0015    0.0000 C   0  0  0  0  0  0  0  0  0  0  0  0
    4.6109   -0.6714    0.0000 C   0  0  0  0  0  0  0  0  0  0  0  0
  1  2  1  0        0
  1  5  1  0        0
  2  3  1  0        0
  3  4  2  0        0
  3 11  1  0        0
  6  7  1  0        0
  6  8  2  0        0
  6 12  1  0        0
  7  9  1  0        0
  9 10  1  0        0
 11 12  1  0        0
 11 15  2  0        0
 12 16  2  0        0
 13 14  2  0        0
 13 16  1  0        0
 14 15  1  0        0
M  END
>  <MolfileName> (5)
iss2_705

>  <cdk_Title> (5)
iss2_705

>  <Substance ID> (5)
iss2_705

>  <Molecular_Weight> (5)
222.2

>  <FW_iss2> (5)
222.2

>  <Parent_Atom_Count> (5)
16.0

>  <Parent_Molecular_Weight> (5)
222.2

>  <Rotatable_Bonds> (5)
6.0

>  <Hydrogen_Bond_Acceptors> (5)
2.0

>  <Polar_Surface_Area> (5)
52.6

>  <Lipinski_Score> (5)
0.0

>  <Canc_iss2> (5)
2

>  <ALogP> (5)
2.04

>  <Hydrogen_Bond_Donors> (5)
0.0

>  <ChemName_iss2> (5)
Diethyl Phthalate 

>  <SMILES_iss2> (5)
O=C(OCC)c(c(ccc1)C(=O)OCC)c1

>  <SAL_iss2> (5)
1

>  <CAS_iss2> (5)
84-66-2

>  <Formula_iss2> (5)
C12H14O4

>  <Structural Alert for genotoxic carcinogenicity> (5)
NO

>  <Structural Alert for nongenotoxic carcinogenicity> (5)
YES

>  <SA42_nogen> (5)
YES

>  <SA47_nogen> (5)
NO

>  <SA44_nogen> (5)
NO

>  <SA41_nogen> (5)
NO

>  <SA49_nogen> (5)
NO

>  <SA46_nogen> (5)
NO

>  <SA43_nogen> (5)
NO

>  <SA40_nogen> (5)
NO

>  <SA48_nogen> (5)
NO

>  <SA45_nogen> (5)
NO

>  <SA38_gen> (5)
NO

>  <SA50_nogen> (5)
NO

>  <SA55_nogen> (5)
NO

>  <SA52_nogen> (5)
NO

>  <SA54_nogen> (5)
NO

>  <SA51_nogen> (5)
NO

>  <SA56_nogen> (5)
NO

>  <SA53_nogen> (5)
NO

>  <SA39_gen_and_nogen> (5)
NO

>  <SA37_gen> (5)
NO

$$$$
