iss2_107


 11 10  0  0  0  0  0  0  0  0999 V2000
    0.0000   -2.4734    0.0000 C   0  0  0  0  0  0  0  0  0  0  0  0
    0.6596   -1.3192    0.0000 O   0  0  0  0  0  0  0  0  0  0  0  0
    1.9914   -1.3192    0.0000 P   0  0  0  0  0  0  0  0  0  0  0  0
    3.3233   -1.3192    0.0000 O   0  0  0  0  0  0  0  0  0  0  0  0
    3.9828   -2.4734    0.0000 C   0  0  0  0  0  0  0  0  0  0  0  0
    5.3147   -2.4734    0.0000 C   0  0  0  0  0  0  0  0  0  0  0  0
    5.9743   -3.6277    0.0000 Cl  0  0  0  0  0  0  0  0  0  0  0  0
    1.9914   -0.0000    0.0000 O   0  0  0  0  0  0  0  0  0  0  0  0
    5.9743   -1.3192    0.0000 Cl  0  0  0  0  0  0  0  0  0  0  0  0
    1.9914   -2.6510    0.0000 O   0  0  0  0  0  0  0  0  0  0  0  0
    0.8372   -3.3233    0.0000 C   0  0  0  0  0  0  0  0  0  0  0  0
  1  2  1  0  0  0  0
  2  3  1  0  0  0  0
  3  4  1  0  0  0  0
  3  8  2  0  0  0  0
  3 10  1  0  0  0  0
  4  5  1  0  0  0  0
  5  6  2  0  0  0  0
  6  7  1  0  0  0  0
  6  9  1  0  0  0  0
 10 11  1  0  0  0  0
M  END
>  <Substance ID> (iss2_107)
iss2_107

>  <FW_iss2> (iss2_107)
221.0

>  <Canc_iss2> (iss2_107)
3.0

>  <ChemName_iss2> (iss2_107)
Dichlorvos

>  <SMILES_iss2> (iss2_107)
O=P(OC=C(Cl)Cl)(OC)OC

>  <SAL_iss2> (iss2_107)
3

>  <CAS_iss2> (iss2_107)
62-73-7

>  <Formula_iss2> (iss2_107)
C4H7Cl2O4P

$$$$
iss2_118


 19 18  0  0  0  0  0  0  0  0999 V2000
    4.6544   -0.0000    0.0000 O   0  0  0  0  0  0  0  0  0  0  0  0
    1.1636   -2.0210    0.0000 P   0  0  0  0  0  0  0  0  0  0  0  0
    0.4899   -0.8574    0.0000 O   0  0  0  0  0  0  0  0  0  0  0  0
    2.3272   -1.3473    0.0000 S   0  0  0  0  0  0  0  0  0  0  0  0
    3.4908   -2.0210    0.0000 C   0  0  0  0  0  0  0  0  0  0  0  0
    3.4908   -3.3530    0.0000 C   0  0  0  0  0  0  0  0  0  0  0  0
    4.6544   -1.3473    0.0000 C   0  0  0  0  0  0  0  0  0  0  0  0
    4.6544   -4.0266    0.0000 C   0  0  0  0  0  0  0  0  0  0  0  0
    4.6544   -5.3740    0.0000 O   0  0  0  0  0  0  0  0  0  0  0  0
    5.8180   -2.0210    0.0000 O   0  0  0  0  0  0  0  0  0  0  0  0
    5.8180   -3.3530    0.0000 O   0  0  0  0  0  0  0  0  0  0  0  0
    6.9816   -4.0266    0.0000 C   0  0  0  0  0  0  0  0  0  0  0  0
    8.1451   -3.3530    0.0000 C   0  0  0  0  0  0  0  0  0  0  0  0
    0.0000   -2.6946    0.0000 O   0  0  0  0  0  0  0  0  0  0  0  0
    1.8373   -3.1846    0.0000 O   0  0  0  0  0  0  0  0  0  0  0  0
    2.7099   -3.8582    0.0000 C   0  0  0  0  0  0  0  0  0  0  0  0
    0.0000   -4.0266    0.0000 C   0  0  0  0  0  0  0  0  0  0  0  0
    6.9816   -1.3473    0.0000 C   0  0  0  0  0  0  0  0  0  0  0  0
    8.1451   -2.0210    0.0000 C   0  0  0  0  0  0  0  0  0  0  0  0
  1  7  2  0  0  0  0
  2  3  2  0  0  0  0
  2  4  1  0  0  0  0
  2 14  1  0  0  0  0
  2 15  1  0  0  0  0
  4  5  1  0  0  0  0
  5  6  1  0  0  0  0
  5  7  1  0  0  0  0
  6  8  1  0  0  0  0
  7 10  1  0  0  0  0
  8  9  2  0  0  0  0
  8 11  1  0  0  0  0
 10 18  1  0  0  0  0
 11 12  1  0  0  0  0
 12 13  1  0  0  0  0
 14 17  1  0  0  0  0
 15 16  1  0  0  0  0
 18 19  1  0  0  0  0
M  END
>  <Substance ID> (iss2_118)
iss2_118

>  <FW_iss2> (iss2_118)
314.3

>  <Canc_iss2> (iss2_118)
1.0

>  <ChemName_iss2> (iss2_118)
Malaoxon

>  <SMILES_iss2> (iss2_118)
O=C(C(SP(=O)(OC)OC)CC(=O)OCC)OCC

>  <SAL_iss2> (iss2_118)
1

>  <CAS_iss2> (iss2_118)
1634-78-2

>  <Formula_iss2> (iss2_118)
C10H19O7PS

$$$$
iss2_184


 12 12  0  0  0  0  0  0  0  0999 V2000
    5.3218   -2.4910    0.0000 C   0  0  0  0  0  0  0  0  0  0  0  0
    3.9913   -2.4910    0.0000 C   0  0  0  0  0  0  0  0  0  0  0  0
    3.3261   -1.3304    0.0000 N   0  0  0  0  0  0  0  0  0  0  0  0
    3.9913   -0.1840    0.0000 C   0  0  0  0  0  0  0  0  0  0  0  0
    5.3218   -0.1840    0.0000 C   0  0  0  0  0  0  0  0  0  0  0  0
    5.9870   -1.3304    0.0000 O   0  0  0  0  0  0  0  0  0  0  0  0
    1.9957   -1.3304    0.0000 P   0  0  0  0  0  0  0  0  0  0  0  0
    1.9957   -2.6609    0.0000 O   0  0  0  0  0  0  0  0  0  0  0  0
    0.6652   -1.3304    0.0000 O   0  0  0  0  0  0  0  0  0  0  0  0
    1.9957   -0.0000    0.0000 O   0  0  0  0  0  0  0  0  0  0  0  0
    0.0000   -0.1840    0.0000 C   0  0  0  0  0  0  0  0  0  0  0  0
    3.1421   -3.3261    0.0000 C   0  0  0  0  0  0  0  0  0  0  0  0
  1  2  1  0  0  0  0
  1  6  1  0  0  0  0
  2  3  1  0  0  0  0
  3  4  1  0  0  0  0
  3  7  1  0  0  0  0
  4  5  1  0  0  0  0
  5  6  1  0  0  0  0
  7  8  1  0  0  0  0
  7  9  1  0  0  0  0
  7 10  2  0  0  0  0
  8 12  1  0  0  0  0
  9 11  1  0  0  0  0
M  END
>  <Substance ID> (iss2_184)
iss2_184

>  <FW_iss2> (iss2_184)
195.2

>  <Canc_iss2> (iss2_184)
3.0

>  <ChemName_iss2> (iss2_184)
Dimethyl morpholinophosphoramidate

>  <SMILES_iss2> (iss2_184)
P(=O)(OC)(OC)N1CCOCC1

>  <SAL_iss2> (iss2_184)
1

>  <CAS_iss2> (iss2_184)
597-25-1

>  <Formula_iss2> (iss2_184)
C6H14NO4P

$$$$
iss2_217


 18 17  0  0  0  0  0  0  0  0999 V2000
    1.9950   -2.3080    0.0000 P   0  0  0  0  0  0  0  0  0  0  0  0
    3.3250   -2.3080    0.0000 O   0  0  0  0  0  0  0  0  0  0  0  0
    1.9950   -3.6380    0.0000 O   0  0  0  0  0  0  0  0  0  0  0  0
    0.6650   -2.3080    0.0000 O   0  0  0  0  0  0  0  0  0  0  0  0
    1.9950   -0.9779    0.0000 O   0  0  0  0  0  0  0  0  0  0  0  0
    0.0000   -1.1605    0.0000 C   0  0  0  0  0  0  0  0  0  0  0  0
    3.1555   -4.3030    0.0000 C   0  0  0  0  0  0  0  0  0  0  0  0
    3.9900   -1.1605    0.0000 C   0  0  0  0  0  0  0  0  0  0  0  0
    3.3250   -0.0000    0.0000 C   0  0  0  0  0  0  0  0  0  0  0  0
    5.3200   -1.1605    0.0000 C   0  0  0  0  0  0  0  0  0  0  0  0
    5.9850   -0.0000    0.0000 Cl  0  0  0  0  0  0  0  0  0  0  0  0
    5.9850   -2.3080    0.0000 C   0  0  0  0  0  0  0  0  0  0  0  0
    5.3200   -3.4554    0.0000 O   0  0  0  0  0  0  0  0  0  0  0  0
    7.3150   -2.3080    0.0000 N   0  0  0  0  0  0  0  0  0  0  0  0
    7.9800   -1.1605    0.0000 C   0  0  0  0  0  0  0  0  0  0  0  0
    7.9800   -3.4554    0.0000 C   0  0  0  0  0  0  0  0  0  0  0  0
    9.3100   -1.1605    0.0000 C   0  0  0  0  0  0  0  0  0  0  0  0
    9.3100   -3.4554    0.0000 C   0  0  0  0  0  0  0  0  0  0  0  0
  1  2  1  0  0  0  0
  1  3  1  0  0  0  0
  1  4  1  0  0  0  0
  1  5  2  0  0  0  0
  2  8  1  0  0  0  0
  3  7  1  0  0  0  0
  4  6  1  0  0  0  0
  8  9  1  0  0  0  0
  8 10  2  0  0  0  0
 10 11  1  0  0  0  0
 10 12  1  0  0  0  0
 12 13  2  0  0  0  0
 12 14  1  0  0  0  0
 14 15  1  0  0  0  0
 14 16  1  0  0  0  0
 15 17  1  0  0  0  0
 16 18  1  0  0  0  0
M  END
>  <Substance ID> (iss2_217)
iss2_217

>  <FW_iss2> (iss2_217)
299.7

>  <Canc_iss2> (iss2_217)
2.0

>  <ChemName_iss2> (iss2_217)
Phosphamidon

>  <SMILES_iss2> (iss2_217)
O=P(OC(=C(C(=O)N(CC)CC)Cl)C)(OC)OC

>  <SAL_iss2> (iss2_217)
3

>  <CAS_iss2> (iss2_217)
13171-21-6

>  <Formula_iss2> (iss2_217)
C10H19ClNO5P

$$$$
iss2_230


 19 19  0  0  0  0  0  0  0  0999 V2000
    3.4575   -6.7998    0.0000 C   0  0  0  0  0  0  0  0  0  0  0  0
    2.8428   -7.9907    0.0000 C   0  0  0  0  0  0  0  0  0  0  0  0
    0.7811   -6.9150    0.0000 C   0  0  0  0  0  0  0  0  0  0  0  0
    1.4086   -5.7369    0.0000 C   0  0  0  0  0  0  0  0  0  0  0  0
    1.4983   -8.0419    0.0000 C   0  0  0  0  0  0  0  0  0  0  0  0
    2.7404   -5.6729    0.0000 C   0  0  0  0  0  0  0  0  0  0  0  0
    0.6915   -4.5972    0.0000 Cl  0  0  0  0  0  0  0  0  0  0  0  0
    0.8836   -9.2328    0.0000 Cl  0  0  0  0  0  0  0  0  0  0  0  0
    3.5600   -9.1176    0.0000 Cl  0  0  0  0  0  0  0  0  0  0  0  0
    3.3679   -4.4948    0.0000 C   0  0  0  0  0  0  0  0  0  0  0  0
    2.6764   -3.5343    0.0000 O   0  0  0  0  0  0  0  0  0  0  0  0
    4.6997   -4.4307    0.0000 C   0  0  0  0  0  0  0  0  0  0  0  0
    5.4168   -5.5704    0.0000 Cl  0  0  0  0  0  0  0  0  0  0  0  0
    2.2666   -2.2666    0.0000 P   0  0  0  0  0  0  0  0  0  0  0  0
    1.8440   -0.9860    0.0000 O   0  0  0  0  0  0  0  0  0  0  0  0
    0.9988   -2.6764    0.0000 O   0  0  0  0  0  0  0  0  0  0  0  0
    3.5343   -1.8440    0.0000 O   0  0  0  0  0  0  0  0  0  0  0  0
    2.7404   -0.0000    0.0000 C   0  0  0  0  0  0  0  0  0  0  0  0
    0.0000   -1.7800    0.0000 C   0  0  0  0  0  0  0  0  0  0  0  0
  1  2  2  0  0  0  0
  1  6  1  0  0  0  0
  2  5  1  0  0  0  0
  2  9  1  0  0  0  0
  3  4  1  0  0  0  0
  3  5  2  0  0  0  0
  4  6  2  0  0  0  0
  4  7  1  0  0  0  0
  5  8  1  0  0  0  0
  6 10  1  0  0  0  0
 10 11  1  0  0  0  0
 10 12  2  0  0  0  0
 11 14  1  0  0  0  0
 12 13  1  0  0  0  0
 14 15  1  0  0  0  0
 14 16  1  0  0  0  0
 14 17  2  0  0  0  0
 15 18  1  0  0  0  0
 16 19  1  0  0  0  0
M  END
>  <Substance ID> (iss2_230)
iss2_230

>  <FW_iss2> (iss2_230)
366.0

>  <Canc_iss2> (iss2_230)
3.0

>  <ChemName_iss2> (iss2_230)
Tetrachlorvinphos

>  <SMILES_iss2> (iss2_230)
ClC1=CC(Cl)=C(/C(OP(=O)(OC)OC)=C/Cl)C=C1Cl

>  <SAL_iss2> (iss2_230)
1

>  <CAS_iss2> (iss2_230)
961-11-5

>  <Formula_iss2> (iss2_230)
C10H9Cl4O4P

$$$$
iss2_285


  9  8  0  0  0  0  0  0  0  0999 V2000
    2.3139   -3.4455    0.0000 S   0  0  0  0  0  0  0  0  0  0  0  0
    1.6552   -2.2970    0.0000 O   0  0  0  0  0  0  0  0  0  0  0  0
    1.1654   -4.1211    0.0000 O   0  0  0  0  0  0  0  0  0  0  0  0
    3.4624   -2.7868    0.0000 O   0  0  0  0  0  0  0  0  0  0  0  0
    2.9726   -4.6109    0.0000 O   0  0  0  0  0  0  0  0  0  0  0  0
    2.3139   -1.1485    0.0000 C   0  0  0  0  0  0  0  0  0  0  0  0
    1.1654   -5.4554    0.0000 C   0  0  0  0  0  0  0  0  0  0  0  0
    1.6552   -0.0000    0.0000 C   0  0  0  0  0  0  0  0  0  0  0  0
    0.0000   -6.1141    0.0000 C   0  0  0  0  0  0  0  0  0  0  0  0
  1  2  1  0  0  0  0
  1  3  1  0  0  0  0
  1  4  2  0  0  0  0
  1  5  2  0  0  0  0
  2  6  1  0  0  0  0
  3  7  1  0  0  0  0
  6  8  1  0  0  0  0
  7  9  1  0  0  0  0
M  END
>  <Substance ID> (iss2_285)
iss2_285

>  <FW_iss2> (iss2_285)
154.2

>  <Canc_iss2> (iss2_285)
3.0

>  <ChemName_iss2> (iss2_285)
Diethyl Sulfate 

>  <SMILES_iss2> (iss2_285)
O=S(=O)(OCC)OCC

>  <SAL_iss2> (iss2_285)
3

>  <CAS_iss2> (iss2_285)
64-67-5

>  <Formula_iss2> (iss2_285)
C4H10O4S

$$$$
iss2_286


  7  6  0  0  0  0  0  0  0  0999 V2000
    1.3241   -1.3382    0.0000 S   0  0  0  0  0  0  0  0  0  0  0  0
    0.0000   -1.3382    0.0000 C   0  0  0  0  0  0  0  0  0  0  0  0
    2.6623   -1.3382    0.0000 O   0  0  0  0  0  0  0  0  0  0  0  0
    1.3241   -0.0000    0.0000 O   0  0  0  0  0  0  0  0  0  0  0  0
    1.3241   -2.6623    0.0000 O   0  0  0  0  0  0  0  0  0  0  0  0
    3.3243   -2.4932    0.0000 C   0  0  0  0  0  0  0  0  0  0  0  0
    4.6484   -2.4932    0.0000 C   0  0  0  0  0  0  0  0  0  0  0  0
  1  2  1  0  0  0  0
  1  3  1  0  0  0  0
  1  4  2  0  0  0  0
  1  5  2  0  0  0  0
  3  6  1  0  0  0  0
  6  7  1  0  0  0  0
M  END
>  <Substance ID> (iss2_286)
iss2_286

>  <FW_iss2> (iss2_286)
124.2

>  <Canc_iss2> (iss2_286)
3.0

>  <ChemName_iss2> (iss2_286)
Ethyl Methanesulfonate

>  <SMILES_iss2> (iss2_286)
O=S(=O)(OCC)C

>  <SAL_iss2> (iss2_286)
3

>  <CAS_iss2> (iss2_286)
62-50-0

>  <Formula_iss2> (iss2_286)
C3H8O3S

$$$$
iss2_288


  6  5  0  0  0  0  0  0  0  0999 V2000
    1.1427   -1.1427    0.0000 S   0  0  0  0  0  0  0  0  0  0  0  0
    0.0000   -1.8093    0.0000 C   0  0  0  0  0  0  0  0  0  0  0  0
    2.2991   -0.4761    0.0000 O   0  0  0  0  0  0  0  0  0  0  0  0
    0.4761   -0.0000    0.0000 O   0  0  0  0  0  0  0  0  0  0  0  0
    1.8093   -2.2991    0.0000 O   0  0  0  0  0  0  0  0  0  0  0  0
    3.4554   -1.1427    0.0000 C   0  0  0  0  0  0  0  0  0  0  0  0
  1  2  1  0  0  0  0
  1  3  1  0  0  0  0
  1  4  2  0  0  0  0
  1  5  2  0  0  0  0
  3  6  1  0  0  0  0
M  END
>  <Substance ID> (iss2_288)
iss2_288

>  <FW_iss2> (iss2_288)
110.1

>  <Canc_iss2> (iss2_288)
3.0

>  <ChemName_iss2> (iss2_288)
Methyl Methanesulfonate 

>  <SMILES_iss2> (iss2_288)
CS(=O)(=O)OC

>  <SAL_iss2> (iss2_288)
3

>  <CAS_iss2> (iss2_288)
66-27-3

>  <Formula_iss2> (iss2_288)
C2H6O3S

$$$$
iss2_291


  8  7  0  0  0  0  0  0  0  0999 V2000
    1.9955   -1.3303    0.0000 P   0  0  0  0  0  0  0  0  0  0  0  0
    3.3258   -1.3303    0.0000 O   0  0  0  0  0  0  0  0  0  0  0  0
    0.6652   -1.3303    0.0000 O   0  0  0  0  0  0  0  0  0  0  0  0
    1.9955   -2.6606    0.0000 O   0  0  0  0  0  0  0  0  0  0  0  0
    1.9955   -0.0000    0.0000 O   0  0  0  0  0  0  0  0  0  0  0  0
    0.0000   -0.1791    0.0000 C   0  0  0  0  0  0  0  0  0  0  0  0
    3.1467   -3.3258    0.0000 C   0  0  0  0  0  0  0  0  0  0  0  0
    3.9909   -0.1791    0.0000 C   0  0  0  0  0  0  0  0  0  0  0  0
  1  2  1  0  0  0  0
  1  3  1  0  0  0  0
  1  4  1  0  0  0  0
  1  5  2  0  0  0  0
  2  8  1  0  0  0  0
  3  6  1  0  0  0  0
  4  7  1  0  0  0  0
M  END
>  <Substance ID> (iss2_291)
iss2_291

>  <FW_iss2> (iss2_291)
140.1

>  <Canc_iss2> (iss2_291)
3.0

>  <ChemName_iss2> (iss2_291)
Trimethyl Phosphate

>  <SMILES_iss2> (iss2_291)
O=P(OC)(OC)OC

>  <SAL_iss2> (iss2_291)
3

>  <CAS_iss2> (iss2_291)
512-56-1

>  <Formula_iss2> (iss2_291)
C3H9O4P

$$$$
iss2_739


  7  6  0  0  0  0  0  0  0  0999 V2000
    0.0000   -2.4837    0.0000 C   0  0  0  0  0  0  0  0  0  0  0  0
    0.6644   -1.3288    0.0000 O   0  0  0  0  0  0  0  0  0  0  0  0
    1.9933   -1.3288    0.0000 P   0  0  0  0  0  0  0  0  0  0  0  0
    3.3221   -1.3288    0.0000 O   0  0  0  0  0  0  0  0  0  0  0  0
    3.9865   -2.4837    0.0000 C   0  0  0  0  0  0  0  0  0  0  0  0
    1.9933   -2.6577    0.0000 O   0  0  0  0  0  0  0  0  0  0  0  0
    1.9933   -0.0000    0.0000 C   0  0  0  0  0  0  0  0  0  0  0  0
  1  2  1  0  0  0  0
  2  3  1  0  0  0  0
  3  4  1  0  0  0  0
  3  6  2  0  0  0  0
  3  7  1  0  0  0  0
  4  5  1  0  0  0  0
M  END
>  <Substance ID> (iss2_739)
iss2_739

>  <FW_iss2> (iss2_739)
124.1

>  <Canc_iss2> (iss2_739)
3.0

>  <ChemName_iss2> (iss2_739)
Dimethyl methylphosphonate

>  <SMILES_iss2> (iss2_739)
CP(=O)(OC)OC

>  <SAL_iss2> (iss2_739)
1

>  <CAS_iss2> (iss2_739)
756-79-6

>  <Formula_iss2> (iss2_739)
C3H9O3P

$$$$
iss2_858


 12 12  0  0  0  0  0  0  0  0999 V2000
    0.0000   -2.6628    0.0000 C   0  0  0  0  0  0  0  0  0  0  0  0
    0.6673   -3.8148    0.0000 C   0  0  0  0  0  0  0  0  0  0  0  0
    1.9955   -3.8148    0.0000 O   0  0  0  0  0  0  0  0  0  0  0  0
    2.6628   -2.6628    0.0000 P   0  0  0  0  0  0  0  0  0  0  0  0
    3.3238   -1.5108    0.0000 O   0  0  0  0  0  0  0  0  0  0  0  0
    3.8148   -3.3301    0.0000 C   0  0  0  0  0  0  0  0  0  0  0  0
    4.9668   -2.6628    0.0000 C   0  0  0  0  0  0  0  0  0  0  0  0
    5.6277   -1.5108    0.0000 C   0  0  0  0  0  0  0  0  0  0  0  0
    6.2950   -2.6628    0.0000 O   0  0  0  0  0  0  0  0  0  0  0  0
    1.5108   -1.9955    0.0000 O   0  0  0  0  0  0  0  0  0  0  0  0
    1.5108   -0.6673    0.0000 C   0  0  0  0  0  0  0  0  0  0  0  0
    2.6628   -0.0000    0.0000 C   0  0  0  0  0  0  0  0  0  0  0  0
  1  2  1  0  0  0  0
  2  3  1  0  0  0  0
  3  4  1  0  0  0  0
  4  5  2  0  0  0  0
  4  6  1  0  0  0  0
  4 10  1  0  0  0  0
  6  7  1  0  0  0  0
  7  8  1  0  0  0  0
  7  9  1  0  0  0  0
  8  9  1  0  0  0  0
 10 11  1  0  0  0  0
 11 12  1  0  0  0  0
M  END
>  <Substance ID> (iss2_858)
iss2_858

>  <FW_iss2> (iss2_858)
194.2

>  <Canc_iss2> (iss2_858)
3.0

>  <ChemName_iss2> (iss2_858)
Diethyl-beta,gamma-epoxypropylphosphonate

>  <SMILES_iss2> (iss2_858)
CCOP(=O)(C[CH]1CO1)OCC

>  <SAL_iss2> (iss2_858)
ND

>  <CAS_iss2> (iss2_858)
7316-37-2

>  <Formula_iss2> (iss2_858)
C7H15O4P

$$$$
iss2_287


  8  7  0  0  0  0  0  0  0  0999 V2000
    1.1550   -1.1550    0.0000 S   0  0  0  0  0  0  0  0  0  0  0  0
    0.0000   -1.8151    0.0000 C   0  0  0  0  0  0  0  0  0  0  0  0
    2.2974   -0.4950    0.0000 O   0  0  0  0  0  0  0  0  0  0  0  0
    1.8151   -2.3101    0.0000 O   0  0  0  0  0  0  0  0  0  0  0  0
    0.4823   -0.0000    0.0000 O   0  0  0  0  0  0  0  0  0  0  0  0
    3.4524   -1.1550    0.0000 C   0  0  0  0  0  0  0  0  0  0  0  0
    4.6075   -0.4950    0.0000 C   0  0  0  0  0  0  0  0  0  0  0  0
    3.4524   -2.4878    0.0000 C   0  0  0  0  0  0  0  0  0  0  0  0
  1  2  1  0  0  0  0
  1  3  1  0  0  0  0
  1  4  2  0  0  0  0
  1  5  2  0  0  0  0
  3  6  1  0  0  0  0
  6  7  1  0  0  0  0
  6  8  1  0  0  0  0
M  END
>  <Substance ID> (iss2_287)
iss2_287

>  <Molecular.Weight> (iss2_287)
138.2

>  <FW_iss2> (iss2_287)
138.2

>  <Parent.Atom.Count> (iss2_287)
8.0

>  <Parent.Molecular.Weight> (iss2_287)
138.2

>  <Rotatable.Bonds> (iss2_287)
2.0

>  <Hydrogen.Bond.Acceptors> (iss2_287)
2.0

>  <Polar.Surface.Area> (iss2_287)
43.37

>  <Lipinski.Score> (iss2_287)
0.0

>  <Canc_iss2> (iss2_287)
3.0

>  <ALogP> (iss2_287)
0.37

>  <Hydrogen.Bond.Donors> (iss2_287)
0.0

>  <ChemName_iss2> (iss2_287)
Isopropyl methanesulfonate

>  <SMILES_iss2> (iss2_287)
O=S(=O)(OC(C)C)C

>  <SAL_iss2> (iss2_287)
3

>  <CAS_iss2> (iss2_287)
926-06-7

>  <Formula_iss2> (iss2_287)
C4H10O3S

$$$$