iss2_64


  5  4  0  0  0  0  0  0  0  0999 V2000
    0.0000   -0.6641    0.0000 Cl  0  0  0  0  0  0  0  0  0  0  0  0
    1.1589   -0.0000    0.0000 C   0  0  0  0  0  0  0  0  0  0  0  0
    2.3047   -0.6641    0.0000 C   0  0  0  0  0  0  0  0  0  0  0  0
    3.4636   -0.0000    0.0000 C   0  0  0  0  0  0  0  0  0  0  0  0
    4.6094   -0.6641    0.0000 Cl  0  0  0  0  0  0  0  0  0  0  0  0
  1  2  1  0  0  0  0
  2  3  2  0  0  0  0
  3  4  1  0  0  0  0
  4  5  1  0  0  0  0
M  END
>  <Substance ID> (iss2_64)
iss2_64

>  <FW_iss2> (iss2_64)
111.0

>  <Canc_iss2> (iss2_64)
3.0

>  <ChemName_iss2> (iss2_64)
Telone II, Technical

>  <SMILES_iss2> (iss2_64)
ClCC=CCl

>  <SAL_iss2> (iss2_64)
3

>  <CAS_iss2> (iss2_64)
542-75-6

>  <Formula_iss2> (iss2_64)
C3H4Cl2

$$$$
iss2_226


 12 11  0  0  0  0  0  0  0  0999 V2000
    2.3068   -1.9900    0.0000 N   0  0  0  0  0  0  0  0  0  0  0  0
    1.1534   -1.3182    0.0000 C   0  0  0  0  0  0  0  0  0  0  0  0
    2.3068   -3.3208    0.0000 C   0  0  0  0  0  0  0  0  0  0  0  0
    0.0000   -1.9900    0.0000 C   0  0  0  0  0  0  0  0  0  0  0  0
    1.1534   -3.9799    0.0000 C   0  0  0  0  0  0  0  0  0  0  0  0
    3.4476   -1.3182    0.0000 C   0  0  0  0  0  0  0  0  0  0  0  0
    4.6010   -1.9900    0.0000 S   0  0  0  0  0  0  0  0  0  0  0  0
    3.4476   -0.0000    0.0000 S   0  0  0  0  0  0  0  0  0  0  0  0
    5.7544   -1.3182    0.0000 C   0  0  0  0  0  0  0  0  0  0  0  0
    6.9078   -1.9900    0.0000 C   0  0  0  0  0  0  0  0  0  0  0  0
    8.0486   -1.3182    0.0000 C   0  0  0  0  0  0  0  0  0  0  0  0
    6.9078   -3.3208    0.0000 Cl  0  0  0  0  0  0  0  0  0  0  0  0
  1  2  1  0  0  0  0
  1  3  1  0  0  0  0
  1  6  1  0  0  0  0
  2  4  1  0  0  0  0
  3  5  1  0  0  0  0
  6  7  1  0  0  0  0
  6  8  2  0  0  0  0
  7  9  1  0  0  0  0
  9 10  1  0  0  0  0
 10 11  2  0  0  0  0
 10 12  1  0  0  0  0
M  END
>  <Substance ID> (iss2_226)
iss2_226

>  <FW_iss2> (iss2_226)
223.8

>  <Canc_iss2> (iss2_226)
3.0

>  <ChemName_iss2> (iss2_226)
Sulfallate

>  <SMILES_iss2> (iss2_226)
S=C(N(CC)CC)SCC(=C)Cl

>  <SAL_iss2> (iss2_226)
3

>  <CAS_iss2> (iss2_226)
95-06-7

>  <Formula_iss2> (iss2_226)
C8H14ClNS2

$$$$
iss2_253


  3  2  0  0  0  0  0  0  0  0999 V2000
    0.6583   -0.0000    0.0000 C   0  0  0  0  0  0  0  0  0  0  0  0
    0.0000   -1.1521    0.0000 C   0  0  0  0  0  0  0  0  0  0  0  0
    1.9914   -0.0000    0.0000 Cl  0  0  0  0  0  0  0  0  0  0  0  0
  1  2  2  0  0  0  0
  1  3  1  0  0  0  0
M  END
>  <Substance ID> (iss2_253)
iss2_253

>  <FW_iss2> (iss2_253)
62.5

>  <Canc_iss2> (iss2_253)
3.0

>  <ChemName_iss2> (iss2_253)
Vinyl Chloride

>  <SMILES_iss2> (iss2_253)
C=CCl

>  <SAL_iss2> (iss2_253)
3

>  <CAS_iss2> (iss2_253)
75-01-4

>  <Formula_iss2> (iss2_253)
C2H3Cl

$$$$
iss2_262


  5  4  0  0  0  0  0  0  0  0999 V2000
    0.6588   -1.1529    0.0000 C   0  0  0  0  0  0  0  0  0  0  0  0
    1.9890   -1.1529    0.0000 C   0  0  0  0  0  0  0  0  0  0  0  0
    0.0000   -0.0000    0.0000 C   0  0  0  0  0  0  0  0  0  0  0  0
    0.0000   -2.3057    0.0000 C   0  0  0  0  0  0  0  0  0  0  0  0
    2.6605   -2.3057    0.0000 Cl  0  0  0  0  0  0  0  0  0  0  0  0
  1  2  2  0  0  0  0
  1  3  1  0  0  0  0
  1  4  1  0  0  0  0
  2  5  1  0  0  0  0
M  END
>  <Substance ID> (iss2_262)
iss2_262

>  <FW_iss2> (iss2_262)
90.55

>  <Canc_iss2> (iss2_262)
3.0

>  <ChemName_iss2> (iss2_262)
Dimethylvinyl Chloride

>  <SMILES_iss2> (iss2_262)
CC(=CCl)C

>  <SAL_iss2> (iss2_262)
1

>  <CAS_iss2> (iss2_262)
513-37-1

>  <Formula_iss2> (iss2_262)
C4H7Cl

$$$$
iss2_442


  4  3  0  0  0  0  0  0  0  0999 V2000
    0.0000   -0.6694    0.0000 Cl  0  0  0  0  0  0  0  0  0  0  0  0
    1.1493   -0.0000    0.0000 C   0  0  0  0  0  0  0  0  0  0  0  0
    2.2986   -0.6694    0.0000 C   0  0  0  0  0  0  0  0  0  0  0  0
    3.4479   -0.0000    0.0000 C   0  0  0  0  0  0  0  0  0  0  0  0
  1  2  1  0  0  0  0
  2  3  2  0  0  0  0
  3  4  1  0  0  0  0
M  END
>  <Substance ID> (iss2_442)
iss2_442

>  <FW_iss2> (iss2_442)
76.52

>  <Canc_iss2> (iss2_442)
3.0

>  <ChemName_iss2> (iss2_442)
1-Chloropropene

>  <SMILES_iss2> (iss2_442)
CC=CCl

>  <SAL_iss2> (iss2_442)
3

>  <CAS_iss2> (iss2_442)
590-21-6

>  <Formula_iss2> (iss2_442)
C3H5Cl

$$$$
iss2_628


  3  2  0  0  0  0  0  0  0  0999 V2000
    0.0000   -0.6646    0.0000 Br  0  0  0  0  0  0  0  0  0  0  0  0
    1.1520   -0.0000    0.0000 C   0  0  0  0  0  0  0  0  0  0  0  0
    2.3041   -0.6646    0.0000 C   0  0  0  0  0  0  0  0  0  0  0  0
  1  2  1  0  0  0  0
  2  3  2  0  0  0  0
M  END
>  <Substance ID> (iss2_628)
iss2_628

>  <Molecular.Weight> (iss2_628)
106.9

>  <FW_iss2> (iss2_628)
106.9

>  <Parent.Atom.Count> (iss2_628)
3.0

>  <Parent.Molecular.Weight> (iss2_628)
106.9

>  <Rotatable.Bonds> (iss2_628)
0.0

>  <Hydrogen.Bond.Acceptors> (iss2_628)
0.0

>  <Polar.Surface.Area> (iss2_628)
0.0

>  <Lipinski.Score> (iss2_628)
0.0

>  <Canc_iss2> (iss2_628)
3.0

>  <ALogP> (iss2_628)
1.52

>  <Hydrogen.Bond.Donors> (iss2_628)
0.0

>  <ChemName_iss2> (iss2_628)
Vinyl bromide

>  <SMILES_iss2> (iss2_628)
C=CBr

>  <SAL_iss2> (iss2_628)
ND

>  <CAS_iss2> (iss2_628)
593-60-2

>  <Formula_iss2> (iss2_628)
C2H3Br

$$$$