iss2_227
csCF1100/12201114312D

 18 19  0  0  0  0  0  0  0  0999 V2000
    7.3144   -2.4805    0.0000 C   0  0  0  0  0  0  0  0  0  0  0  0
    8.6373   -2.6205    0.0000 C   0  0  0  0  0  0  0  0  0  0  0  0
    8.9172   -3.9180    0.0000 C   0  0  0  0  0  0  0  0  0  0  0  0
    7.7596   -4.5922    0.0000 N   0  0  0  0  0  0  0  0  0  0  0  0
    6.7801   -3.7017    0.0000 O   0  0  0  0  0  0  0  0  0  0  0  0
    1.3229   -1.3357    0.0000 C   0  0  0  0  0  0  0  0  0  0  0  0
    1.9971   -0.1781    0.0000 C   0  0  0  0  0  0  0  0  0  0  0  0
    3.9943   -1.3357    0.0000 C   0  0  0  0  0  0  0  0  0  0  0  0
    3.3201   -2.4805    0.0000 C   0  0  0  0  0  0  0  0  0  0  0  0
    3.3201   -0.1781    0.0000 C   0  0  0  0  0  0  0  0  0  0  0  0
    1.9971   -2.4805    0.0000 C   0  0  0  0  0  0  0  0  0  0  0  0
    0.0000   -1.3357    0.0000 N   0  0  0  0  0  0  0  0  0  0  0  0
    5.3172   -1.3357    0.0000 S   0  0  0  0  0  0  0  0  0  0  0  0
    6.6529   -1.3357    0.0000 N   0  0  0  0  0  0  0  0  0  0  0  0
    5.3172    0.0000    0.0000 O   0  0  0  0  0  0  0  0  0  0  0  0
    5.3172   -2.6586    0.0000 O   0  0  0  0  0  0  0  0  0  0  0  0
   10.1384   -4.4650    0.0000 C   0  0  0  0  0  0  0  0  0  0  0  0
    9.5278   -1.6282    0.0000 C   0  0  0  0  0  0  0  0  0  0  0  0
  1  2  2  0        0
  1  5  1  0        0
  1 14  1  0        0
  2  3  1  0        0
  2 18  1  0        0
  3  4  2  0        0
  3 17  1  0        0
  4  5  1  0        0
  6  7  2  0        0
  6 11  1  0        0
  6 12  1  0        0
  7 10  1  0        0
  8  9  1  0        0
  8 10  2  0        0
  8 13  1  0        0
  9 11  2  0        0
 13 14  1  0        0
 13 15  2  0        0
 13 16  2  0        0
M  END
>  <MolfileName> (1)
iss2_227

>  <cdk_Title> (1)
iss2_227

>  <Substance ID> (1)
iss2_227

>  <Molecular_Weight> (1)
267.3

>  <FW_iss2> (1)
267.3

>  <Parent_Atom_Count> (1)
18.0

>  <Parent_Molecular_Weight> (1)
267.3

>  <Rotatable_Bonds> (1)
3.0

>  <Hydrogen_Bond_Acceptors> (1)
2.0

>  <Polar_Surface_Area> (1)
98.22

>  <Lipinski_Score> (1)
0.0

>  <Canc_iss2> (1)
1

>  <ALogP> (1)
1.67

>  <Hydrogen_Bond_Donors> (1)
2.0

>  <ChemName_iss2> (1)
Sulfisoxazole

>  <SMILES_iss2> (1)
O=S(=O)(C1=CC=C(C=C1)N)NC2=C(C(=NO2)C)C

>  <SAL_iss2> (1)
1

>  <CAS_iss2> (1)
127-69-5

>  <Formula_iss2> (1)
C11H13N3O3S

>  <Structural Alert for genotoxic carcinogenicity> (1)
YES

>  <Structural Alert for nongenotoxic carcinogenicity> (1)
YES

>  <SA42_nogen> (1)
NO

>  <SA47_nogen> (1)
NO

>  <SA44_nogen> (1)
NO

>  <SA41_nogen> (1)
NO

>  <SA49_nogen> (1)
NO

>  <SA46_nogen> (1)
NO

>  <SA43_nogen> (1)
NO

>  <SA40_nogen> (1)
NO

>  <SA48_nogen> (1)
NO

>  <SA45_nogen> (1)
NO

>  <SA38_gen> (1)
NO

>  <SA50_nogen> (1)
NO

>  <SA55_nogen> (1)
NO

>  <SA52_nogen> (1)
NO

>  <SA54_nogen> (1)
NO

>  <SA51_nogen> (1)
NO

>  <SA56_nogen> (1)
NO

>  <SA53_nogen> (1)
YES

>  <SA39_gen_and_nogen> (1)
NO

>  <SA37_gen> (1)
NO

$$$$
iss2_264
csCF1100/12201114312D

 21 22  0  0  0  0  0  0  0  0999 V2000
    6.9195   -1.5997    0.0000 C   0  0  0  0  0  0  0  0  0  0  0  0
    7.0592   -0.2793    0.0000 O   0  0  0  0  0  0  0  0  0  0  0  0
    8.3542    0.0000    0.0000 C   0  0  0  0  0  0  0  0  0  0  0  0
    9.0144   -1.1554    0.0000 C   0  0  0  0  0  0  0  0  0  0  0  0
    8.1256   -2.1457    0.0000 C   0  0  0  0  0  0  0  0  0  0  0  0
    3.4661   -6.2593    0.0000 C   0  0  0  0  0  0  0  0  0  0  0  0
    2.3107   -5.5991    0.0000 C   0  0  0  0  0  0  0  0  0  0  0  0
    3.4661   -3.6058    0.0000 C   0  0  0  0  0  0  0  0  0  0  0  0
    4.6088   -4.2660    0.0000 C   0  0  0  0  0  0  0  0  0  0  0  0
    2.3107   -4.2660    0.0000 C   0  0  0  0  0  0  0  0  0  0  0  0
    4.6088   -5.5991    0.0000 C   0  0  0  0  0  0  0  0  0  0  0  0
    5.7641   -6.2593    0.0000 C   0  0  0  0  0  0  0  0  0  0  0  0
    1.1554   -6.2593    0.0000 S   0  0  0  0  0  0  0  0  0  0  0  0
    1.1554   -3.6058    0.0000 Cl  0  0  0  0  0  0  0  0  0  0  0  0
    5.7641   -3.6058    0.0000 N   0  0  0  0  0  0  0  0  0  0  0  0
    6.9195   -5.5991    0.0000 O   0  0  0  0  0  0  0  0  0  0  0  0
    5.7641   -7.5924    0.0000 O   0  0  0  0  0  0  0  0  0  0  0  0
    0.0000   -6.9195    0.0000 N   0  0  0  0  0  0  0  0  0  0  0  0
    0.4952   -5.1039    0.0000 O   0  0  0  0  0  0  0  0  0  0  0  0
    1.8283   -7.4147    0.0000 O   0  0  0  0  0  0  0  0  0  0  0  0
    5.7641   -2.2726    0.0000 C   0  0  0  0  0  0  0  0  0  0  0  0
  1  2  1  0        0
  1  5  2  0        0
  1 21  1  0        0
  2  3  1  0        0
  3  4  2  0        0
  4  5  1  0        0
  6  7  2  0        0
  6 11  1  0        0
  7 10  1  0        0
  7 13  1  0        0
  8  9  1  0        0
  8 10  2  0        0
  9 11  2  0        0
  9 15  1  0        0
 10 14  1  0        0
 11 12  1  0        0
 12 16  2  0        0
 12 17  1  0        0
 13 18  1  0        0
 13 19  2  0        0
 13 20  2  0        0
 15 21  1  0        0
M  END
>  <MolfileName> (2)
iss2_264

>  <cdk_Title> (2)
iss2_264

>  <Substance ID> (2)
iss2_264

>  <Molecular_Weight> (2)
330.7

>  <FW_iss2> (2)
330.7

>  <Parent_Atom_Count> (2)
21.0

>  <Parent_Molecular_Weight> (2)
330.7

>  <Rotatable_Bonds> (2)
5.0

>  <Hydrogen_Bond_Acceptors> (2)
4.0

>  <Polar_Surface_Area> (2)
122.6

>  <Lipinski_Score> (2)
0.0

>  <Canc_iss2> (2)
3

>  <ALogP> (2)
1.89

>  <Hydrogen_Bond_Donors> (2)
2.0

>  <ChemName_iss2> (2)
Furosemide

>  <SMILES_iss2> (2)
O=S(=O)(N)c1c(Cl)cc(c(C(=O)O)c1)NCc2occc2

>  <SAL_iss2> (2)
1

>  <CAS_iss2> (2)
54-31-9

>  <Formula_iss2> (2)
C12H11ClN2O5S

>  <Structural Alert for genotoxic carcinogenicity> (2)
NO

>  <Structural Alert for nongenotoxic carcinogenicity> (2)
YES

>  <SA42_nogen> (2)
NO

>  <SA47_nogen> (2)
NO

>  <SA44_nogen> (2)
NO

>  <SA41_nogen> (2)
NO

>  <SA49_nogen> (2)
NO

>  <SA46_nogen> (2)
NO

>  <SA43_nogen> (2)
NO

>  <SA40_nogen> (2)
NO

>  <SA48_nogen> (2)
NO

>  <SA45_nogen> (2)
NO

>  <SA38_gen> (2)
NO

>  <SA50_nogen> (2)
NO

>  <SA55_nogen> (2)
NO

>  <SA52_nogen> (2)
NO

>  <SA54_nogen> (2)
NO

>  <SA51_nogen> (2)
NO

>  <SA56_nogen> (2)
NO

>  <SA53_nogen> (2)
YES

>  <SA39_gen_and_nogen> (2)
NO

>  <SA37_gen> (2)
NO

$$$$
iss2_266
csCF1100/12201114312D

 17 18  0  0  0  0  0  0  0  0999 V2000
    2.3034   -1.9925    0.0000 C   0  0  0  0  0  0  0  0  0  0  0  0
    3.4480   -1.3283    0.0000 C   0  0  0  0  0  0  0  0  0  0  0  0
    4.6068   -1.9925    0.0000 C   0  0  0  0  0  0  0  0  0  0  0  0
    2.3034   -3.3209    0.0000 C   0  0  0  0  0  0  0  0  0  0  0  0
    3.4480   -3.9850    0.0000 C   0  0  0  0  0  0  0  0  0  0  0  0
    4.6068   -3.3209    0.0000 C   0  0  0  0  0  0  0  0  0  0  0  0
    5.7514   -3.9850    0.0000 N   0  0  0  0  0  0  0  0  0  0  0  0
    5.7514   -5.3275    0.0000 C   0  0  0  0  0  0  0  0  0  0  0  0
    4.6068   -5.9917    0.0000 N   0  0  0  0  0  0  0  0  0  0  0  0
    3.4480   -5.3275    0.0000 S   0  0  0  0  0  0  0  0  0  0  0  0
    1.1446   -1.3283    0.0000 S   0  0  0  0  0  0  0  0  0  0  0  0
    3.4480    0.0000    0.0000 Cl  0  0  0  0  0  0  0  0  0  0  0  0
    2.7839   -6.4721    0.0000 O   0  0  0  0  0  0  0  0  0  0  0  0
    2.1197   -5.3275    0.0000 O   0  0  0  0  0  0  0  0  0  0  0  0
    0.0000   -0.6642    0.0000 N   0  0  0  0  0  0  0  0  0  0  0  0
    1.8088   -0.1837    0.0000 O   0  0  0  0  0  0  0  0  0  0  0  0
    0.4805   -2.4871    0.0000 O   0  0  0  0  0  0  0  0  0  0  0  0
  1  2  2  0        0
  1  4  1  0        0
  1 11  1  0        0
  2  3  1  0        0
  2 12  1  0        0
  3  6  2  0        0
  4  5  2  0        0
  5  6  1  0        0
  5 10  1  0        0
  6  7  1  0        0
  7  8  1  0        0
  8  9  1  0        0
  9 10  1  0        0
 10 13  2  0        0
 10 14  2  0        0
 11 15  1  0        0
 11 16  2  0        0
 11 17  2  0        0
M  END
>  <MolfileName> (3)
iss2_266

>  <cdk_Title> (3)
iss2_266

>  <Substance ID> (3)
iss2_266

>  <Molecular_Weight> (3)
297.7

>  <FW_iss2> (3)
297.7

>  <Parent_Atom_Count> (3)
17.0

>  <Parent_Molecular_Weight> (3)
297.7

>  <Rotatable_Bonds> (3)
1.0

>  <Hydrogen_Bond_Acceptors> (3)
4.0

>  <Polar_Surface_Area> (3)
118.4

>  <Lipinski_Score> (3)
0.0

>  <Canc_iss2> (3)
2

>  <ALogP> (3)
-0.35

>  <Hydrogen_Bond_Donors> (3)
3.0

>  <ChemName_iss2> (3)
Hydrochlorothiazide

>  <SMILES_iss2> (3)
O=S1(=O)C2=C(C=C(C(=C2)S(=O)(=O)N)Cl)NCN1

>  <SAL_iss2> (3)
1

>  <CAS_iss2> (3)
58-93-5

>  <Formula_iss2> (3)
C7H8ClN3O4S2

>  <Structural Alert for genotoxic carcinogenicity> (3)
NO

>  <Structural Alert for nongenotoxic carcinogenicity> (3)
YES

>  <SA42_nogen> (3)
NO

>  <SA47_nogen> (3)
NO

>  <SA44_nogen> (3)
NO

>  <SA41_nogen> (3)
NO

>  <SA49_nogen> (3)
NO

>  <SA46_nogen> (3)
NO

>  <SA43_nogen> (3)
NO

>  <SA40_nogen> (3)
NO

>  <SA48_nogen> (3)
NO

>  <SA45_nogen> (3)
NO

>  <SA38_gen> (3)
NO

>  <SA50_nogen> (3)
NO

>  <SA55_nogen> (3)
NO

>  <SA52_nogen> (3)
NO

>  <SA54_nogen> (3)
NO

>  <SA51_nogen> (3)
NO

>  <SA56_nogen> (3)
NO

>  <SA53_nogen> (3)
YES

>  <SA39_gen_and_nogen> (3)
NO

>  <SA37_gen> (3)
NO

$$$$
iss2_654
csCF1100/12201114312D

 54 59  0  0  0  0  0  0  0  0999 V2000
   20.6098   -2.3055    0.0000 C   0  0  0  0  0  0  0  0  0  0  0  0
   23.2700   -2.3055    0.0000 C   0  0  0  0  0  0  0  0  0  0  0  0
   22.6113   -1.1527    0.0000 C   0  0  0  0  0  0  0  0  0  0  0  0
   21.2812   -1.1527    0.0000 C   0  0  0  0  0  0  0  0  0  0  0  0
   14.6308   -1.1527    0.0000 C   0  0  0  0  0  0  0  0  0  0  0  0
   15.2895    0.0000    0.0000 C   0  0  0  0  0  0  0  0  0  0  0  0
   17.2910   -1.1527    0.0000 C   0  0  0  0  0  0  0  0  0  0  0  0
   16.6196   -2.3055    0.0000 C   0  0  0  0  0  0  0  0  0  0  0  0
   16.6196    0.0000    0.0000 C   0  0  0  0  0  0  0  0  0  0  0  0
   15.2895   -2.3055    0.0000 C   0  0  0  0  0  0  0  0  0  0  0  0
   10.6406   -1.1527    0.0000 C   0  0  0  0  0  0  0  0  0  0  0  0
   11.2993    0.0000    0.0000 C   0  0  0  0  0  0  0  0  0  0  0  0
   13.3007   -1.1527    0.0000 C   0  0  0  0  0  0  0  0  0  0  0  0
   12.6294   -2.3055    0.0000 C   0  0  0  0  0  0  0  0  0  0  0  0
   12.6294    0.0000    0.0000 C   0  0  0  0  0  0  0  0  0  0  0  0
   11.2993   -2.3055    0.0000 C   0  0  0  0  0  0  0  0  0  0  0  0
    4.6489   -2.3055    0.0000 C   0  0  0  0  0  0  0  0  0  0  0  0
    5.3203   -1.1527    0.0000 C   0  0  0  0  0  0  0  0  0  0  0  0
    7.3091   -2.3055    0.0000 C   0  0  0  0  0  0  0  0  0  0  0  0
    6.6504   -3.4582    0.0000 C   0  0  0  0  0  0  0  0  0  0  0  0
    6.6504   -1.1527    0.0000 C   0  0  0  0  0  0  0  0  0  0  0  0
    5.3203   -3.4582    0.0000 C   0  0  0  0  0  0  0  0  0  0  0  0
    0.6714   -6.9037    0.0000 C   0  0  0  0  0  0  0  0  0  0  0  0
    0.0000   -5.7637    0.0000 C   0  0  0  0  0  0  0  0  0  0  0  0
    2.0014   -4.6109    0.0000 C   0  0  0  0  0  0  0  0  0  0  0  0
    2.6601   -5.7637    0.0000 C   0  0  0  0  0  0  0  0  0  0  0  0
    0.6714   -4.6109    0.0000 C   0  0  0  0  0  0  0  0  0  0  0  0
    2.0014   -6.9037    0.0000 C   0  0  0  0  0  0  0  0  0  0  0  0
    0.0000   -8.0564    0.0000 C   0  0  0  0  0  0  0  0  0  0  0  0
    2.6601   -3.4582    0.0000 S   0  0  0  0  0  0  0  0  0  0  0  0
    3.3189   -2.3055    0.0000 O   0  0  0  0  0  0  0  0  0  0  0  0
    8.6391   -2.3055    0.0000 N   0  0  0  0  0  0  0  0  0  0  0  0
    9.3105   -1.1527    0.0000 N   0  0  0  0  0  0  0  0  0  0  0  0
   18.6210   -1.1527    0.0000 N   0  0  0  0  0  0  0  0  0  0  0  0
   19.2797   -2.3055    0.0000 N   0  0  0  0  0  0  0  0  0  0  0  0
   22.6113   -3.4582    0.0000 C   0  0  0  0  0  0  0  0  0  0  0  0
   21.2812   -3.4582    0.0000 C   0  0  0  0  0  0  0  0  0  0  0  0
   21.2812   -5.7637    0.0000 C   0  0  0  0  0  0  0  0  0  0  0  0
   22.6113   -5.7637    0.0000 C   0  0  0  0  0  0  0  0  0  0  0  0
   20.6098   -4.6109    0.0000 C   0  0  0  0  0  0  0  0  0  0  0  0
   23.2700   -4.6109    0.0000 C   0  0  0  0  0  0  0  0  0  0  0  0
   20.6098    0.0000    0.0000 O   0  0  0  0  0  0  0  0  0  0  0  0
   17.2910   -3.4582    0.0000 C   0  0  0  0  0  0  0  0  0  0  0  0
   10.6406   -3.4582    0.0000 C   0  0  0  0  0  0  0  0  0  0  0  0
    1.5074   -2.7868    0.0000 O   0  0  0  0  0  0  0  0  0  0  0  0
    3.8129   -4.1169    0.0000 O   0  0  0  0  0  0  0  0  0  0  0  0
   19.2797   -4.6109    0.0000 S   0  0  0  0  0  0  0  0  0  0  0  0
   23.2700   -6.9037    0.0000 S   0  0  0  0  0  0  0  0  0  0  0  0
   19.2797   -3.2808    0.0000 O   0  0  0  0  0  0  0  0  0  0  0  0
   19.2797   -5.9410    0.0000 O   0  0  0  0  0  0  0  0  0  0  0  0
   24.4227   -6.2450    0.0000 O   0  0  0  0  0  0  0  0  0  0  0  0
   22.1172   -7.5751    0.0000 O   0  0  0  0  0  0  0  0  0  0  0  0
   17.9497   -4.6109    0.0000 O   0  5  0  0  0  0  0  0  0  0  0  0
   23.9413   -8.0564    0.0000 O   0  5  0  0  0  0  0  0  0  0  0  0
  1 37  2  0        0
  1  4  1  0        0
  1 35  1  0        0
  2  3  1  0        0
  2 36  2  0        0
  3  4  2  0        0
  4 42  1  0        0
  5  6  2  0        0
  5 10  1  0        0
  5 13  1  0        0
  6  9  1  0        0
  7  8  1  0        0
  7  9  2  0        0
  7 34  1  0        0
  8 10  2  0        0
  8 43  1  0        0
 11 12  2  0        0
 11 16  1  0        0
 11 33  1  0        0
 12 15  1  0        0
 13 14  1  0        0
 13 15  2  0        0
 14 16  2  0        0
 16 44  1  0        0
 17 18  2  0        0
 17 22  1  0        0
 17 31  1  0        0
 18 21  1  0        0
 19 20  1  0        0
 19 21  2  0        0
 19 32  1  0        0
 20 22  2  0        0
 23 24  2  0        0
 23 28  1  0        0
 23 29  1  0        0
 24 27  1  0        0
 25 26  1  0        0
 25 27  2  0        0
 25 30  1  0        0
 26 28  2  0        0
 30 31  1  0        0
 30 45  2  0        0
 30 46  2  0        0
 32 33  2  0        0
 34 35  2  0        0
 36 37  1  0        0
 36 41  1  0        0
 37 40  1  0        0
 38 39  1  0        0
 38 40  2  0        0
 39 41  2  0        0
 39 48  1  0        0
 40 47  1  0        0
 47 49  2  0        0
 47 50  2  0        0
 47 53  1  0        0
 48 51  2  0        0
 48 52  2  0        0
 48 54  1  0        0
M  CHG  2  53  -1  54  -1
M  END
>  <MolfileName> (4)
iss2_654

>  <cdk_Title> (4)
iss2_654

>  <Substance ID> (4)
iss2_654

>  <Molecular_Weight> (4)
784.8

>  <FW_iss2> (4)
784.8

>  <Parent_Atom_Count> (4)
54.0

>  <Parent_Molecular_Weight> (4)
786.8

>  <Rotatable_Bonds> (4)
10.0

>  <Hydrogen_Bond_Acceptors> (4)
9.0

>  <Polar_Surface_Area> (4)
221.8

>  <Lipinski_Score> (4)
3.0

>  <Canc_iss2> (4)
3

>  <ALogP> (4)
9.23

>  <Hydrogen_Bond_Donors> (4)
1.0

>  <ChemName_iss2> (4)
C.I. Acid Red 114

>  <SMILES_iss2> (4)
[Na+].O=S(=O)(Oc5ccc(/N=N/c1ccc(cc1C)c4ccc(/N=N/c2c3c(ccc2O)cc(cc3S([O-])(=O)=O)S([O-])(=O)=O)c(c4)C)cc5)c6ccc(cc6)C.[Na+]

>  <SAL_iss2> (4)
3

>  <CAS_iss2> (4)
6459-94-5

>  <Formula_iss2> (4)
C37H28N4O10S3

>  <Structural Alert for genotoxic carcinogenicity> (4)
YES

>  <Structural Alert for nongenotoxic carcinogenicity> (4)
YES

>  <SA42_nogen> (4)
NO

>  <SA47_nogen> (4)
NO

>  <SA44_nogen> (4)
NO

>  <SA41_nogen> (4)
NO

>  <SA49_nogen> (4)
NO

>  <SA46_nogen> (4)
NO

>  <SA43_nogen> (4)
NO

>  <SA40_nogen> (4)
NO

>  <SA48_nogen> (4)
NO

>  <SA45_nogen> (4)
NO

>  <SA38_gen> (4)
NO

>  <SA50_nogen> (4)
NO

>  <SA55_nogen> (4)
NO

>  <SA52_nogen> (4)
NO

>  <SA54_nogen> (4)
NO

>  <SA51_nogen> (4)
NO

>  <SA56_nogen> (4)
NO

>  <SA53_nogen> (4)
YES

>  <SA39_gen_and_nogen> (4)
NO

>  <SA37_gen> (4)
NO

$$$$
iss2_421
csCF1100/12201114312D

 51 55  0  0  0  0  0  0  0  0999 V2000
   12.2310   -9.1052    0.0000 C   0  0  0  0  0  0  0  0  0  0  0  0
   12.5958  -10.2285    0.0000 C   0  0  0  0  0  0  0  0  0  0  0  0
   14.6930   -9.6876    0.0000 C   0  0  0  0  0  0  0  0  0  0  0  0
   14.3110   -8.4181    0.0000 C   0  0  0  0  0  0  0  0  0  0  0  0
   13.8437  -10.5271    0.0000 C   0  0  0  0  0  0  0  0  0  0  0  0
   13.1397   -8.1411    0.0000 C   0  0  0  0  0  0  0  0  0  0  0  0
   11.5981   -2.6132    0.0000 C   0  0  0  0  0  0  0  0  0  0  0  0
   11.7074   -3.6002    0.0000 C   0  0  0  0  0  0  0  0  0  0  0  0
   13.8417   -3.1885    0.0000 C   0  0  0  0  0  0  0  0  0  0  0  0
   13.7262   -2.0958    0.0000 C   0  0  0  0  0  0  0  0  0  0  0  0
   12.8875   -3.9042    0.0000 C   0  0  0  0  0  0  0  0  0  0  0  0
   12.6697   -1.8312    0.0000 C   0  0  0  0  0  0  0  0  0  0  0  0
    6.9039   -7.2975    0.0000 C   0  0  0  0  0  0  0  0  0  0  0  0
    6.6113   -8.6242    0.0000 C   0  0  0  0  0  0  0  0  0  0  0  0
    7.5176   -9.4430    0.0000 C   0  0  0  0  0  0  0  0  0  0  0  0
    8.8211   -9.0259    0.0000 C   0  0  0  0  0  0  0  0  0  0  0  0
    9.0194   -7.7945    0.0000 C   0  0  0  0  0  0  0  0  0  0  0  0
    8.1483   -7.0117    0.0000 C   0  0  0  0  0  0  0  0  0  0  0  0
    6.8028   -5.0778    0.0000 C   0  0  0  0  0  0  0  0  0  0  0  0
    7.6126   -4.9226    0.0000 C   0  0  0  0  0  0  0  0  0  0  0  0
    8.4447   -3.9274    0.0000 C   0  0  0  0  0  0  0  0  0  0  0  0
    8.4193   -3.1086    0.0000 C   0  0  0  0  0  0  0  0  0  0  0  0
    7.4473   -3.1700    0.0000 C   0  0  0  0  0  0  0  0  0  0  0  0
    6.6732   -4.1029    0.0000 C   0  0  0  0  0  0  0  0  0  0  0  0
    2.1869   -6.5231    0.0000 C   0  0  0  0  0  0  0  0  0  0  0  0
    2.8902   -7.6208    0.0000 C   0  0  0  0  0  0  0  0  0  0  0  0
    4.0892   -7.5705    0.0000 C   0  0  0  0  0  0  0  0  0  0  0  0
    4.7444   -6.4087    0.0000 C   0  0  0  0  0  0  0  0  0  0  0  0
    4.0872   -5.4054    0.0000 C   0  0  0  0  0  0  0  0  0  0  0  0
    2.7504   -5.4647    0.0000 C   0  0  0  0  0  0  0  0  0  0  0  0
    6.1389   -6.3271    0.0000 C   0  0  0  0  0  0  0  0  0  0  0  0
    9.3363   -2.2098    0.0000 N   0  0  0  0  0  0  0  0  0  0  0  0
    9.8129   -9.6189    0.0000 N   0  3  0  0  0  0  0  0  0  0  0  0
    9.2488   -1.2474    0.0000 C   0  0  0  0  0  0  0  0  0  0  0  0
    9.9402   -0.1053    0.0000 C   0  0  0  0  0  0  0  0  0  0  0  0
   10.3715   -2.2556    0.0000 C   0  0  0  0  0  0  0  0  0  0  0  0
   10.9094   -8.7670    0.0000 C   0  0  0  0  0  0  0  0  0  0  0  0
    9.8970  -10.9263    0.0000 C   0  0  0  0  0  0  0  0  0  0  0  0
    9.1209  -11.8284    0.0000 C   0  0  0  0  0  0  0  0  0  0  0  0
    0.5843   -6.6090    0.0000 S   0  0  0  0  0  0  0  0  0  0  0  0
   14.9828   -1.1002    0.0000 S   0  0  0  0  0  0  0  0  0  0  0  0
   14.0986  -12.0416    0.0000 S   0  0  0  0  0  0  0  0  0  0  0  0
    0.0000   -5.4405    0.0000 O   0  5  0  0  0  0  0  0  0  0  0  0
    0.1199   -6.5367    0.0000 O   0  0  0  0  0  0  0  0  0  0  0  0
    0.1907   -7.8068    0.0000 O   0  0  0  0  0  0  0  0  0  0  0  0
   16.1284   -1.8185    0.0000 O   0  5  0  0  0  0  0  0  0  0  0  0
   15.4407   -0.7192    0.0000 O   0  0  0  0  0  0  0  0  0  0  0  0
   14.5921    0.0000    0.0000 O   0  0  0  0  0  0  0  0  0  0  0  0
   12.6533  -12.4365    0.0000 O   0  5  0  0  0  0  0  0  0  0  0  0
   14.3773  -12.6098    0.0000 O   0  0  0  0  0  0  0  0  0  0  0  0
   15.1001  -12.2816    0.0000 O   0  0  0  0  0  0  0  0  0  0  0  0
  1  2  2  0        0
  1  6  1  0        0
  1 37  1  0        0
  2  5  1  0        0
  3  4  1  0        0
  3  5  2  0        0
  4  6  2  0        0
  5 42  1  0        0
  7  8  2  0        0
  7 12  1  0        0
  7 36  1  0        0
  8 11  1  0        0
  9 10  1  0        0
  9 11  2  0        0
 10 12  2  0        0
 10 41  1  0        0
 13 14  1  0        0
 13 18  1  0        0
 13 31  2  0        0
 14 15  2  0        0
 15 16  1  0        0
 16 17  1  0        0
 16 33  2  0        0
 17 18  2  0        0
 19 20  2  0        0
 19 24  1  0        0
 19 31  1  0        0
 20 21  1  0        0
 21 22  2  0        0
 22 23  1  0        0
 22 32  1  0        0
 23 24  2  0        0
 25 26  1  0        0
 25 30  2  0        0
 25 40  1  0        0
 26 27  2  0        0
 27 28  1  0        0
 28 29  2  0        0
 28 31  1  0        0
 29 30  1  0        0
 32 34  1  0        0
 32 36  1  0        0
 33 37  1  0        0
 33 38  1  0        0
 34 35  1  0        0
 38 39  1  0        0
 40 43  1  0        0
 40 44  2  0        0
 40 45  2  0        0
 41 46  1  0        0
 41 47  2  0        0
 41 48  2  0        0
 42 49  1  0        0
 42 50  2  0        0
 42 51  2  0        0
M  CHG  4  33   1  43  -1  46  -1  49  -1
M  END
>  <MolfileName> (5)
iss2_421

>  <cdk_Title> (5)
iss2_421

>  <Substance ID> (5)
iss2_421

>  <Molecular_Weight> (5)
746.9

>  <FW_iss2> (5)
746.9

>  <Parent_Atom_Count> (5)
51.0

>  <Parent_Molecular_Weight> (5)
749.9

>  <Rotatable_Bonds> (5)
12.0

>  <Hydrogen_Bond_Acceptors> (5)
9.0

>  <Polar_Surface_Area> (5)
169.4

>  <Lipinski_Score> (5)
3.0

>  <Canc_iss2> (5)
3

>  <ALogP> (5)
6.05

>  <Hydrogen_Bond_Donors> (5)
0.0

>  <ChemName_iss2> (5)
FD & C Green No. 2

>  <SMILES_iss2> (5)
[Na+].[O-]S(=O)(=O)c1cccc(c1)CN(c2ccc(cc2)\C(=C\4/C=C\C(=[N+](\CC)Cc3cccc(c3)S([O-].[Na+])(=O)=O)/C=C/4)c5ccc(cc5)S([O-])(=O)=O)CC.[Na+]

>  <SAL_iss2> (5)
1

>  <CAS_iss2> (5)
5141-20-8

>  <Formula_iss2> (5)
C37H34N2O9S3

>  <Structural Alert for genotoxic carcinogenicity> (5)
NO

>  <Structural Alert for nongenotoxic carcinogenicity> (5)
YES

>  <SA42_nogen> (5)
NO

>  <SA47_nogen> (5)
NO

>  <SA44_nogen> (5)
NO

>  <SA41_nogen> (5)
NO

>  <SA49_nogen> (5)
NO

>  <SA46_nogen> (5)
NO

>  <SA43_nogen> (5)
NO

>  <SA40_nogen> (5)
NO

>  <SA48_nogen> (5)
NO

>  <SA45_nogen> (5)
NO

>  <SA38_gen> (5)
NO

>  <SA50_nogen> (5)
NO

>  <SA55_nogen> (5)
NO

>  <SA52_nogen> (5)
NO

>  <SA54_nogen> (5)
NO

>  <SA51_nogen> (5)
NO

>  <SA56_nogen> (5)
NO

>  <SA53_nogen> (5)
YES

>  <SA39_gen_and_nogen> (5)
NO

>  <SA37_gen> (5)
NO

$$$$
iss2_439
csCF1100/12201114312D

 19 20  0  0  0  0  0  0  0  0999 V2000
    5.1404   -1.1481    0.0000 C   0  0  0  0  0  0  0  0  0  0  0  0
    5.8058   -2.2962    0.0000 C   0  0  0  0  0  0  0  0  0  0  0  0
    5.1404   -3.4574    0.0000 C   0  0  0  0  0  0  0  0  0  0  0  0
    3.8096   -1.1481    0.0000 C   0  0  0  0  0  0  0  0  0  0  0  0
    3.1443   -2.2962    0.0000 C   0  0  0  0  0  0  0  0  0  0  0  0
    3.8096   -3.4574    0.0000 C   0  0  0  0  0  0  0  0  0  0  0  0
    1.8135   -4.6055    0.0000 C   0  0  0  0  0  0  0  0  0  0  0  0
    1.1481   -3.4574    0.0000 C   0  0  0  0  0  0  0  0  0  0  0  0
    3.1443   -4.6055    0.0000 C   0  0  0  0  0  0  0  0  0  0  0  0
    1.8135   -2.2962    0.0000 C   0  0  0  0  0  0  0  0  0  0  0  0
    1.1481   -1.1481    0.0000 S   0  0  0  0  0  0  0  0  0  0  0  0
    3.8096   -5.7666    0.0000 S   0  0  0  0  0  0  0  0  0  0  0  0
    0.0000   -1.8135    0.0000 O   0  0  0  0  0  0  0  0  0  0  0  0
    2.2962   -0.4827    0.0000 O   0  0  0  0  0  0  0  0  0  0  0  0
    2.6615   -6.4320    0.0000 O   0  0  0  0  0  0  0  0  0  0  0  0
    4.9577   -5.1013    0.0000 O   0  0  0  0  0  0  0  0  0  0  0  0
    0.4827    0.0000    0.0000 N   0  0  0  0  0  0  0  0  0  0  0  0
    4.4750   -6.9147    0.0000 C   0  0  0  0  0  0  0  0  0  0  0  0
    3.8096   -8.0629    0.0000 C   0  0  0  0  0  0  0  0  0  0  0  0
  1  2  2  0        0
  1  4  1  0        0
  2  3  1  0        0
  3  6  2  0        0
  4  5  2  0        0
  5  6  1  0        0
  5 10  1  0        0
  6  9  1  0        0
  7  8  1  0        0
  7  9  2  0        0
  8 10  2  0        0
  9 12  1  0        0
 10 11  1  0        0
 11 13  2  0        0
 11 14  2  0        0
 11 17  1  0        0
 12 15  2  0        0
 12 16  2  0        0
 12 18  1  0        0
 18 19  1  0        0
M  END
>  <MolfileName> (6)
iss2_439

>  <cdk_Title> (6)
iss2_439

>  <Substance ID> (6)
iss2_439

>  <Molecular_Weight> (6)
299.4

>  <FW_iss2> (6)
299.4

>  <Parent_Atom_Count> (6)
19.0

>  <Parent_Molecular_Weight> (6)
299.4

>  <Rotatable_Bonds> (6)
3.0

>  <Hydrogen_Bond_Acceptors> (6)
4.0

>  <Polar_Surface_Area> (6)
94.3

>  <Lipinski_Score> (6)
0.0

>  <Canc_iss2> (6)
3

>  <ALogP> (6)
1.28

>  <Hydrogen_Bond_Donors> (6)
1.0

>  <ChemName_iss2> (6)
4-Ethylsulfonylnaphthalene-1-sulfonamide

>  <SMILES_iss2> (6)
O=S(=O)(c2c1ccccc1c(cc2)S(=O)(=O)N)CC

>  <SAL_iss2> (6)
ND

>  <CAS_iss2> (6)
842-00-2

>  <Formula_iss2> (6)
C12H13NO4S2

>  <Structural Alert for genotoxic carcinogenicity> (6)
NO

>  <Structural Alert for nongenotoxic carcinogenicity> (6)
YES

>  <SA42_nogen> (6)
NO

>  <SA47_nogen> (6)
NO

>  <SA44_nogen> (6)
NO

>  <SA41_nogen> (6)
NO

>  <SA49_nogen> (6)
NO

>  <SA46_nogen> (6)
NO

>  <SA43_nogen> (6)
NO

>  <SA40_nogen> (6)
NO

>  <SA48_nogen> (6)
NO

>  <SA45_nogen> (6)
NO

>  <SA38_gen> (6)
NO

>  <SA50_nogen> (6)
NO

>  <SA55_nogen> (6)
NO

>  <SA52_nogen> (6)
NO

>  <SA54_nogen> (6)
NO

>  <SA51_nogen> (6)
NO

>  <SA56_nogen> (6)
NO

>  <SA53_nogen> (6)
YES

>  <SA39_gen_and_nogen> (6)
NO

>  <SA37_gen> (6)
NO

$$$$
iss2_497
csCF1100/12201114312D

 12 13  0  0  0  0  0  0  0  0999 V2000
    3.4227   -3.5772    0.0000 S   0  0  0  0  0  0  0  0  0  0  0  0
    2.3419   -4.3492    0.0000 N   0  5  0  0  0  0  0  0  0  0  0  0
    1.2610   -3.5772    0.0000 C   0  0  0  0  0  0  0  0  0  0  0  0
    3.0110   -2.3033    0.0000 C   0  0  0  0  0  0  0  0  0  0  0  0
    1.6728   -2.3033    0.0000 C   0  0  0  0  0  0  0  0  0  0  0  0
    1.6728    0.0000    0.0000 C   0  0  0  0  0  0  0  0  0  0  0  0
    3.0110    0.0000    0.0000 C   0  0  0  0  0  0  0  0  0  0  0  0
    1.0165   -1.1581    0.0000 C   0  0  0  0  0  0  0  0  0  0  0  0
    3.6672   -1.1581    0.0000 C   0  0  0  0  0  0  0  0  0  0  0  0
    0.0000   -3.9889    0.0000 O   0  0  0  0  0  0  0  0  0  0  0  0
    4.7224   -3.2941    0.0000 O   0  0  0  0  0  0  0  0  0  0  0  0
    4.3106   -4.5551    0.0000 O   0  0  0  0  0  0  0  0  0  0  0  0
  1  2  1  0        0
  1  4  1  0        0
  1 11  2  0        0
  1 12  2  0        0
  2  3  1  0        0
  3  5  1  0        0
  3 10  2  0        0
  4  5  2  0        0
  4  9  1  0        0
  5  8  1  0        0
  6  7  1  0        0
  6  8  2  0        0
  7  9  2  0        0
M  CHG  1   2  -1
M  END
>  <MolfileName> (7)
iss2_497

>  <cdk_Title> (7)
iss2_497

>  <Substance ID> (7)
iss2_497

>  <Molecular_Weight> (7)
182.2

>  <FW_iss2> (7)
182.2

>  <Parent_Atom_Count> (7)
12.0

>  <Parent_Molecular_Weight> (7)
183.2

>  <Rotatable_Bonds> (7)
0.0

>  <Hydrogen_Bond_Acceptors> (7)
3.0

>  <Polar_Surface_Area> (7)
63.24

>  <Lipinski_Score> (7)
0.0

>  <Canc_iss2> (7)
3

>  <ALogP> (7)
0.12

>  <Hydrogen_Bond_Donors> (7)
0.0

>  <ChemName_iss2> (7)
Saccharin sodium

>  <SMILES_iss2> (7)
[Na+].O=C1[N-]S(=O)(=O)c2ccccc12

>  <SAL_iss2> (7)
1

>  <CAS_iss2> (7)
128-44-9

>  <Formula_iss2> (7)
C7H4NO3S

>  <Structural Alert for genotoxic carcinogenicity> (7)
NO

>  <Structural Alert for nongenotoxic carcinogenicity> (7)
YES

>  <SA42_nogen> (7)
NO

>  <SA47_nogen> (7)
NO

>  <SA44_nogen> (7)
NO

>  <SA41_nogen> (7)
NO

>  <SA49_nogen> (7)
NO

>  <SA46_nogen> (7)
NO

>  <SA43_nogen> (7)
NO

>  <SA40_nogen> (7)
NO

>  <SA48_nogen> (7)
NO

>  <SA45_nogen> (7)
NO

>  <SA38_gen> (7)
NO

>  <SA50_nogen> (7)
NO

>  <SA55_nogen> (7)
NO

>  <SA52_nogen> (7)
NO

>  <SA54_nogen> (7)
NO

>  <SA51_nogen> (7)
NO

>  <SA56_nogen> (7)
NO

>  <SA53_nogen> (7)
YES

>  <SA39_gen_and_nogen> (7)
NO

>  <SA37_gen> (7)
NO

$$$$
