$$$$
iss2_42


  7  7  0  0  0  0  0  0  0  0999 V2000
    2.3046   -2.0007    0.0000 C   0  0  0  0  0  0  0  0  0  0  0  0
    2.3046   -3.3303    0.0000 C   0  0  0  0  0  0  0  0  0  0  0  0
    1.1523   -3.9887    0.0000 C   0  0  0  0  0  0  0  0  0  0  0  0
    0.0000   -3.3303    0.0000 C   0  0  0  0  0  0  0  0  0  0  0  0
    0.0000   -2.0007    0.0000 C   0  0  0  0  0  0  0  0  0  0  0  0
    1.1523   -1.3296    0.0000 C   0  0  0  0  0  0  0  0  0  0  0  0
    1.1523   -0.0000    0.0000 Cl  0  0  0  0  0  0  0  0  0  0  0  0
  1  6  2  0  0  0  0
  1  2  1  0  0  0  0
  2  3  2  0  0  0  0
  3  4  1  0  0  0  0
  4  5  2  0  0  0  0
  5  6  1  0  0  0  0
  6  7  1  0  0  0  0
M  END
>  <Substance ID> (iss2_42)
iss2_42

>  <ID_iss2> (iss2_42)
42.0

>  <Canc_iss2> (iss2_42)
2.0

>  <SAL_iss2> (iss2_42)
1

$$$$
iss2_47


 51 54  0  0  0  0  0  0  0  0999 V2000
    7.3113   -2.3022    0.0000 C   0  0  0  0  0  0  0  0  0  0  0  0
    5.9831   -2.3022    0.0000 C   0  0  0  0  0  0  0  0  0  0  0  0
    7.9691   -1.1511    0.0000 C   0  0  0  0  0  0  0  0  0  0  0  0
    7.9691   -3.4659    0.0000 C   0  0  0  0  0  0  0  0  0  0  0  0
    5.3127   -3.4659    0.0000 N   0  0  0  0  0  0  0  0  0  0  0  0
    5.3127   -1.1511    0.0000 C   0  0  0  0  0  0  0  0  0  0  0  0
    7.3113   -0.0000    0.0000 C   0  0  0  0  0  0  0  0  0  0  0  0
    9.2973   -1.1511    0.0000 C   0  0  0  0  0  0  0  0  0  0  0  0
    9.2973   -3.4659    0.0000 C   0  0  0  0  0  0  0  0  0  0  0  0
    3.9845   -3.4659    0.0000 N   0  0  0  0  0  0  0  0  0  0  0  0
    5.9831   -0.0000    0.0000 C   0  0  0  0  0  0  0  0  0  0  0  0
    3.9845   -1.1511    0.0000 O   0  0  0  0  0  0  0  0  0  0  0  0
    9.9677   -2.3022    0.0000 C   0  0  0  0  0  0  0  0  0  0  0  0
    3.3141   -4.6170    0.0000 C   0  0  0  0  0  0  0  0  0  0  0  0
    3.9845   -5.7681    0.0000 C   0  0  0  0  0  0  0  0  0  0  0  0
    1.9859   -4.6170    0.0000 C   0  0  0  0  0  0  0  0  0  0  0  0
    3.3141   -6.9192    0.0000 C   0  0  0  0  0  0  0  0  0  0  0  0
    5.3127   -5.7681    0.0000 S   0  0  0  0  0  0  0  0  0  0  0  0
    1.3282   -5.7681    0.0000 C   0  0  0  0  0  0  0  0  0  0  0  0
    1.9859   -6.9192    0.0000 C   0  0  0  0  0  0  0  0  0  0  0  0
    6.6409   -5.7681    0.0000 O   0  0  0  0  0  0  0  0  0  0  0  0
    5.3127   -7.0963    0.0000 O   0  0  0  0  0  0  0  0  0  0  0  0
    5.3127   -4.4273    0.0000 O   0  5  0  0  0  0  0  0  0  0  0  0
    0.0000   -5.7681    0.0000 C   0  0  0  0  0  0  0  0  0  0  0  0
    1.3282   -8.0703    0.0000 Cl  0  0  0  0  0  0  0  0  0  0  0  0
   10.4610  -15.6220    0.0000 C   0  0  0  0  0  0  0  0  0  0  0  0
   11.7892  -15.6220    0.0000 C   0  0  0  0  0  0  0  0  0  0  0  0
    9.7906  -16.7731    0.0000 C   0  0  0  0  0  0  0  0  0  0  0  0
    9.7906  -14.4709    0.0000 C   0  0  0  0  0  0  0  0  0  0  0  0
   12.4596  -14.4709    0.0000 N   0  0  0  0  0  0  0  0  0  0  0  0
   12.4596  -16.7731    0.0000 C   0  0  0  0  0  0  0  0  0  0  0  0
   10.4610  -17.9241    0.0000 C   0  0  0  0  0  0  0  0  0  0  0  0
    8.4624  -16.7731    0.0000 C   0  0  0  0  0  0  0  0  0  0  0  0
    8.4624  -14.4709    0.0000 C   0  0  0  0  0  0  0  0  0  0  0  0
   13.7878  -14.4709    0.0000 N   0  0  0  0  0  0  0  0  0  0  0  0
   11.7892  -17.9241    0.0000 C   0  0  0  0  0  0  0  0  0  0  0  0
   13.7878  -16.7731    0.0000 O   0  0  0  0  0  0  0  0  0  0  0  0
    7.8047  -15.6220    0.0000 C   0  0  0  0  0  0  0  0  0  0  0  0
   14.4456  -13.3198    0.0000 C   0  0  0  0  0  0  0  0  0  0  0  0
   13.7878  -12.1687    0.0000 C   0  0  0  0  0  0  0  0  0  0  0  0
   15.7738  -13.3198    0.0000 C   0  0  0  0  0  0  0  0  0  0  0  0
   14.4456  -11.0176    0.0000 C   0  0  0  0  0  0  0  0  0  0  0  0
   12.4596  -12.1687    0.0000 S   0  0  0  0  0  0  0  0  0  0  0  0
   16.4442  -12.1687    0.0000 C   0  0  0  0  0  0  0  0  0  0  0  0
   15.7738  -11.0176    0.0000 C   0  0  0  0  0  0  0  0  0  0  0  0
   11.1188  -12.1687    0.0000 O   0  0  0  0  0  0  0  0  0  0  0  0
   12.4596  -10.8405    0.0000 O   0  0  0  0  0  0  0  0  0  0  0  0
   12.4596  -13.4969    0.0000 O   0  5  0  0  0  0  0  0  0  0  0  0
   17.7724  -12.1687    0.0000 C   0  0  0  0  0  0  0  0  0  0  0  0
   16.4442   -9.8665    0.0000 Cl  0  0  0  0  0  0  0  0  0  0  0  0
    9.0063   -8.3739    0.0000 Ba  0  2  0  0  0  0  0  0  0  0  0  0
  1  2  1  0  0  0  0
  1  3  2  0  0  0  0
  1  4  1  0  0  0  0
  2  5  1  0  0  0  0
  2  6  2  0  0  0  0
  3  7  1  0  0  0  0
  3  8  1  0  0  0  0
  4  9  2  0  0  0  0
  5 10  2  0  0  0  0
  6 11  1  0  0  0  0
  6 12  1  0  0  0  0
  7 11  2  0  0  0  0
  8 13  2  0  0  0  0
  9 13  1  0  0  0  0
 10 14  1  0  0  0  0
 14 15  1  0  0  0  0
 14 16  2  0  0  0  0
 15 17  2  0  0  0  0
 15 18  1  0  0  0  0
 16 19  1  0  0  0  0
 17 20  1  0  0  0  0
 18 21  2  0  0  0  0
 18 22  2  0  0  0  0
 18 23  1  0  0  0  0
 19 24  1  0  0  0  0
 19 20  2  0  0  0  0
 20 25  1  0  0  0  0
 26 27  1  0  0  0  0
 26 28  2  0  0  0  0
 26 29  1  0  0  0  0
 27 30  1  0  0  0  0
 27 31  2  0  0  0  0
 28 32  1  0  0  0  0
 28 33  1  0  0  0  0
 29 34  2  0  0  0  0
 30 35  2  0  0  0  0
 31 36  1  0  0  0  0
 31 37  1  0  0  0  0
 32 36  2  0  0  0  0
 33 38  2  0  0  0  0
 34 38  1  0  0  0  0
 35 39  1  0  0  0  0
 39 40  1  0  0  0  0
 39 41  2  0  0  0  0
 40 42  2  0  0  0  0
 40 43  1  0  0  0  0
 41 44  1  0  0  0  0
 42 45  1  0  0  0  0
 43 46  2  0  0  0  0
 43 47  2  0  0  0  0
 43 48  1  0  0  0  0
 44 49  1  0  0  0  0
 44 45  2  0  0  0  0
 45 50  1  0  0  0  0
M  CHG  3  23  -1  48  -1  51   2
M  END
>  <Substance ID> (iss2_47)
iss2_47

>  <ID_iss2> (iss2_47)
47.0

>  <Canc_iss2> (iss2_47)
3.0

>  <SAL_iss2> (iss2_47)
3

$$$$
iss2_94


 16 17  0  0  0  0  0  0  0  0999 V2000
    2.3038   -6.6455    0.0000 N   0  0  0  0  0  0  0  0  0  0  0  0
    1.1519   -5.9746    0.0000 C   0  0  0  0  0  0  0  0  0  0  0  0
    2.3038   -3.9873    0.0000 C   0  0  0  0  0  0  0  0  0  0  0  0
    3.4557   -4.6455    0.0000 N   0  0  0  0  0  0  0  0  0  0  0  0
    1.1519   -4.6455    0.0000 N   0  0  0  0  0  0  0  0  0  0  0  0
    3.4557   -5.9746    0.0000 C   0  0  0  0  0  0  0  0  0  0  0  0
    4.6075   -6.6455    0.0000 Cl  0  0  0  0  0  0  0  0  0  0  0  0
    2.3038   -2.6582    0.0000 N   0  0  0  0  0  0  0  0  0  0  0  0
    0.0000   -6.6455    0.0000 Cl  0  0  0  0  0  0  0  0  0  0  0  0
    3.4557   -1.9873    0.0000 C   0  0  0  0  0  0  0  0  0  0  0  0
    3.4557   -0.6582    0.0000 C   0  0  0  0  0  0  0  0  0  0  0  0
    5.7594   -0.6582    0.0000 C   0  0  0  0  0  0  0  0  0  0  0  0
    5.7594   -1.9873    0.0000 C   0  0  0  0  0  0  0  0  0  0  0  0
    4.6075   -0.0000    0.0000 C   0  0  0  0  0  0  0  0  0  0  0  0
    4.6075   -2.6582    0.0000 C   0  0  0  0  0  0  0  0  0  0  0  0
    2.3038   -0.0000    0.0000 Cl  0  0  0  0  0  0  0  0  0  0  0  0
  1  2  2  0  0  0  0
  1  6  1  0  0  0  0
  2  5  1  0  0  0  0
  2  9  1  0  0  0  0
  3  4  1  0  0  0  0
  3  5  2  0  0  0  0
  3  8  1  0  0  0  0
  4  6  2  0  0  0  0
  6  7  1  0  0  0  0
  8 10  1  0  0  0  0
 10 11  2  0  0  0  0
 10 15  1  0  0  0  0
 11 14  1  0  0  0  0
 11 16  1  0  0  0  0
 12 13  1  0  0  0  0
 12 14  2  0  0  0  0
 13 15  2  0  0  0  0
M  END
>  <Substance ID> (iss2_94)
iss2_94

>  <ID_iss2> (iss2_94)
94.0

>  <Canc_iss2> (iss2_94)
1.0

>  <SAL_iss2> (iss2_94)
1

$$$$
iss2_103


 17 17  0  0  0  0  0  0  0  0999 V2000
    3.4488   -3.3299    0.0000 N   0  0  0  0  0  0  0  0  0  0  0  0
    2.2992   -2.6692    0.0000 C   0  0  0  0  0  0  0  0  0  0  0  0
    1.1496   -3.3299    0.0000 C   0  0  0  0  0  0  0  0  0  0  0  0
    8.0605   -1.9953    0.0000 C   0  0  0  0  0  0  0  0  0  0  0  0
    8.0605   -0.6739    0.0000 C   0  0  0  0  0  0  0  0  0  0  0  0
   10.3598   -0.6739    0.0000 C   0  0  0  0  0  0  0  0  0  0  0  0
   10.3598   -1.9953    0.0000 C   0  0  0  0  0  0  0  0  0  0  0  0
    9.2101   -0.0000    0.0000 C   0  0  0  0  0  0  0  0  0  0  0  0
    9.2101   -2.6692    0.0000 C   0  0  0  0  0  0  0  0  0  0  0  0
   11.5094   -0.0000    0.0000 Cl  0  0  0  0  0  0  0  0  0  0  0  0
    6.9109   -2.6692    0.0000 S   0  0  0  0  0  0  0  0  0  0  0  0
    6.2370   -1.5064    0.0000 O   0  0  0  0  0  0  0  0  0  0  0  0
    7.5716   -3.8188    0.0000 O   0  0  0  0  0  0  0  0  0  0  0  0
    5.7481   -3.3299    0.0000 N   0  0  0  0  0  0  0  0  0  0  0  0
    4.5985   -2.6692    0.0000 C   0  0  0  0  0  0  0  0  0  0  0  0
    4.5985   -1.3346    0.0000 O   0  0  0  0  0  0  0  0  0  0  0  0
    0.0000   -2.6692    0.0000 C   0  0  0  0  0  0  0  0  0  0  0  0
  1  2  1  0  0  0  0
  1 15  1  0  0  0  0
  2  3  1  0  0  0  0
  3 17  1  0  0  0  0
  4  5  2  0  0  0  0
  4  9  1  0  0  0  0
  4 11  1  0  0  0  0
  5  8  1  0  0  0  0
  6  7  1  0  0  0  0
  6  8  2  0  0  0  0
  6 10  1  0  0  0  0
  7  9  2  0  0  0  0
 11 12  2  0  0  0  0
 11 13  2  0  0  0  0
 11 14  1  0  0  0  0
 14 15  1  0  0  0  0
 15 16  2  0  0  0  0
M  END
>  <Substance ID> (iss2_103)
iss2_103

>  <ID_iss2> (iss2_103)
103.0

>  <Canc_iss2> (iss2_103)
1.0

>  <SAL_iss2> (iss2_103)
1

$$$$
iss2_259


  8  8  0  0  0  0  0  0  0  0999 V2000
    2.3047   -1.9881    0.0000 C   0  0  0  0  0  0  0  0  0  0  0  0
    2.3047   -3.3177    0.0000 C   0  0  0  0  0  0  0  0  0  0  0  0
    0.0000   -3.3177    0.0000 C   0  0  0  0  0  0  0  0  0  0  0  0
    0.0000   -1.9881    0.0000 C   0  0  0  0  0  0  0  0  0  0  0  0
    1.1523   -3.9889    0.0000 C   0  0  0  0  0  0  0  0  0  0  0  0
    1.1523   -1.3296    0.0000 C   0  0  0  0  0  0  0  0  0  0  0  0
    1.1523   -0.0000    0.0000 Cl  0  0  0  0  0  0  0  0  0  0  0  0
    1.1523   -5.3185    0.0000 Cl  0  0  0  0  0  0  0  0  0  0  0  0
  1  2  2  0  0  0  0
  1  6  1  0  0  0  0
  2  5  1  0  0  0  0
  3  4  1  0  0  0  0
  3  5  2  0  0  0  0
  4  6  2  0  0  0  0
  5  8  1  0  0  0  0
  6  7  1  0  0  0  0
M  END
>  <Substance ID> (iss2_259)
iss2_259

>  <ID_iss2> (iss2_259)
259.0

>  <Canc_iss2> (iss2_259)
3.0

>  <SAL_iss2> (iss2_259)
1

$$$$
iss2_433


 16 16  0  0  0  0  0  0  0  0999 V2000
    1.9950   -5.7562    0.0000 C   0  0  0  0  0  0  0  0  0  0  0  0
    0.6735   -5.7562    0.0000 C   0  0  0  0  0  0  0  0  0  0  0  0
    0.0000   -4.6126    0.0000 C   0  0  0  0  0  0  0  0  0  0  0  0
    0.6735   -3.4563    0.0000 C   0  0  0  0  0  0  0  0  0  0  0  0
    1.9950   -3.4563    0.0000 C   0  0  0  0  0  0  0  0  0  0  0  0
    2.6684   -4.6126    0.0000 C   0  0  0  0  0  0  0  0  0  0  0  0
    0.0000   -6.9125    0.0000 Cl  0  0  0  0  0  0  0  0  0  0  0  0
    2.6684   -2.2999    0.0000 O   0  0  0  0  0  0  0  0  0  0  0  0
    3.9899   -2.2999    0.0000 C   0  0  0  0  0  0  0  0  0  0  0  0
    5.3242   -2.2999    0.0000 C   0  0  0  0  0  0  0  0  0  0  0  0
    3.9899   -0.9784    0.0000 C   0  0  0  0  0  0  0  0  0  0  0  0
    3.9899   -3.6342    0.0000 C   0  0  0  0  0  0  0  0  0  0  0  0
    5.9849   -3.4563    0.0000 O   0  0  0  0  0  0  0  0  0  0  0  0
    5.9849   -1.1563    0.0000 O   0  0  0  0  0  0  0  0  0  0  0  0
    7.3191   -1.1563    0.0000 C   0  0  0  0  0  0  0  0  0  0  0  0
    7.9799   -0.0000    0.0000 C   0  0  0  0  0  0  0  0  0  0  0  0
  1  2  2  0  0  0  0
  1  6  1  0  0  0  0
  2  3  1  0  0  0  0
  2  7  1  0  0  0  0
  3  4  2  0  0  0  0
  4  5  1  0  0  0  0
  5  6  2  0  0  0  0
  5  8  1  0  0  0  0
  8  9  1  0  0  0  0
  9 10  1  0  0  0  0
  9 11  1  0  0  0  0
  9 12  1  0  0  0  0
 10 13  2  0  0  0  0
 10 14  1  0  0  0  0
 14 15  1  0  0  0  0
 15 16  1  0  0  0  0
M  END
>  <Substance ID> (iss2_433)
iss2_433

>  <ID_iss2> (iss2_433)
433.0

>  <Canc_iss2> (iss2_433)
3.0

>  <SAL_iss2> (iss2_433)
1

$$$$
iss2_453


 21 22  0  0  0  0  0  0  0  0999 V2000
    9.2208   -3.3337    0.0000 C   0  0  0  0  0  0  0  0  0  0  0  0
    9.2208   -4.6672    0.0000 C   0  0  0  0  0  0  0  0  0  0  0  0
    8.0718   -5.3197    0.0000 C   0  0  0  0  0  0  0  0  0  0  0  0
    6.9227   -4.6672    0.0000 C   0  0  0  0  0  0  0  0  0  0  0  0
    6.9227   -3.3337    0.0000 N   0  0  0  0  0  0  0  0  0  0  0  0
    8.0718   -2.6669    0.0000 C   0  0  0  0  0  0  0  0  0  0  0  0
   10.3699   -2.6669    0.0000 C   0  0  0  0  0  0  0  0  0  0  0  0
    8.0718   -6.6532    0.0000 C   0  0  0  0  0  0  0  0  0  0  0  0
    5.7595   -2.6669    0.0000 S   0  0  0  0  0  0  0  0  0  0  0  0
    4.6104   -2.0002    0.0000 C   0  0  0  0  0  0  0  0  0  0  0  0
    5.1069   -3.8160    0.0000 O   0  0  0  0  0  0  0  0  0  0  0  0
    6.4262   -1.5179    0.0000 O   0  0  0  0  0  0  0  0  0  0  0  0
    3.4614   -2.6669    0.0000 C   0  0  0  0  0  0  0  0  0  0  0  0
    2.3123   -2.0002    0.0000 C   0  0  0  0  0  0  0  0  0  0  0  0
    2.3123   -0.6667    0.0000 C   0  0  0  0  0  0  0  0  0  0  0  0
    3.4614   -0.0000    0.0000 C   0  0  0  0  0  0  0  0  0  0  0  0
    4.6104   -0.6667    0.0000 C   0  0  0  0  0  0  0  0  0  0  0  0
    1.1632   -2.6669    0.0000 C   0  0  0  0  0  0  0  0  0  0  0  0
    0.0000   -2.0002    0.0000 O   0  0  0  0  0  0  0  0  0  0  0  0
    1.1632   -4.0004    0.0000 O   0  0  0  0  0  0  0  0  0  0  0  0
    1.1632   -0.0000    0.0000 Cl  0  0  0  0  0  0  0  0  0  0  0  0
  1  7  1  0  0  0  0
  1  2  1  0  0  0  0
  1  6  1  0  0  0  0
  2  3  1  0  0  0  0
  3  4  1  0  0  0  0
  3  8  1  0  0  0  0
  4  5  1  0  0  0  0
  5  6  1  0  0  0  0
  5  9  1  0  0  0  0
  9 11  2  0  0  0  0
  9 12  2  0  0  0  0
  9 10  1  0  0  0  0
 10 13  2  0  0  0  0
 10 17  1  0  0  0  0
 13 14  1  0  0  0  0
 14 15  2  0  0  0  0
 14 18  1  0  0  0  0
 15 16  1  0  0  0  0
 15 21  1  0  0  0  0
 16 17  2  0  0  0  0
 18 19  2  0  0  0  0
 18 20  1  0  0  0  0
M  END
>  <Substance ID> (iss2_453)
iss2_453

>  <ID_iss2> (iss2_453)
453.0

>  <Canc_iss2> (iss2_453)
3.0

>  <SAL_iss2> (iss2_453)
ND

$$$$
iss2_566


 11 11  0  0  0  0  0  0  0  0999 V2000
    3.3289   -0.0000    0.0000 C   0  0  0  0  0  0  0  0  0  0  0  0
    3.9870   -1.1518    0.0000 C   0  0  0  0  0  0  0  0  0  0  0  0
    1.9999   -2.3036    0.0000 C   0  0  0  0  0  0  0  0  0  0  0  0
    1.3290   -1.1518    0.0000 C   0  0  0  0  0  0  0  0  0  0  0  0
    3.3289   -2.3036    0.0000 C   0  0  0  0  0  0  0  0  0  0  0  0
    1.9999   -0.0000    0.0000 C   0  0  0  0  0  0  0  0  0  0  0  0
    5.3161   -1.1518    0.0000 N   0  0  0  0  0  0  0  0  0  0  0  0
    5.9869   -2.3036    0.0000 C   0  0  0  0  0  0  0  0  0  0  0  0
    5.9869   -0.0000    0.0000 N   0  0  0  0  0  0  0  0  0  0  0  0
    0.0000   -1.1518    0.0000 F   0  0  0  0  0  0  0  0  0  0  0  0
    7.3159   -0.0000    0.0000 O   0  0  0  0  0  0  0  0  0  0  0  0
  1  2  2  0  0  0  0
  1  6  1  0  0  0  0
  2  5  1  0  0  0  0
  2  7  1  0  0  0  0
  3  4  1  0  0  0  0
  3  5  2  0  0  0  0
  4  6  2  0  0  0  0
  4 10  1  0  0  0  0
  7  8  1  0  0  0  0
  7  9  1  0  0  0  0
  9 11  2  0  0  0  0
M  END
>  <Substance ID> (iss2_566)
iss2_566

>  <ID_iss2> (iss2_566)
566.0

>  <Canc_iss2> (iss2_566)
3.0

>  <SAL_iss2> (iss2_566)
ND

$$$$
iss2_659


 13 13  0  0  0  0  0  0  0  0999 V2000
    0.0000   -2.6538    0.0000 C   0  0  0  0  0  0  0  0  0  0  0  0
    0.0000   -1.3332    0.0000 C   0  0  0  0  0  0  0  0  0  0  0  0
    2.2982   -1.3332    0.0000 C   0  0  0  0  0  0  0  0  0  0  0  0
    2.2982   -2.6538    0.0000 C   0  0  0  0  0  0  0  0  0  0  0  0
    1.1428   -0.6603    0.0000 C   0  0  0  0  0  0  0  0  0  0  0  0
    1.1428   -3.3267    0.0000 C   0  0  0  0  0  0  0  0  0  0  0  0
    3.4537   -0.6603    0.0000 Cl  0  0  0  0  0  0  0  0  0  0  0  0
    3.4537   -3.3267    0.0000 C   0  0  0  0  0  0  0  0  0  0  0  0
    4.5965   -2.6538    0.0000 C   0  0  0  0  0  0  0  0  0  0  0  0
    4.5965   -1.3332    0.0000 C   0  0  0  0  0  0  0  0  0  0  0  0
    5.7519   -3.3267    0.0000 C   0  0  0  0  0  0  0  0  0  0  0  0
    4.5965   -0.0000    0.0000 N   0  0  0  0  0  0  0  0  0  0  0  0
    6.9074   -3.9870    0.0000 N   0  0  0  0  0  0  0  0  0  0  0  0
  1  2  2  0  0  0  0
  1  6  1  0  0  0  0
  2  5  1  0  0  0  0
  3  4  1  0  0  0  0
  3  5  2  0  0  0  0
  3  7  1  0  0  0  0
  4  6  2  0  0  0  0
  4  8  1  0  0  0  0
  8  9  2  0  0  0  0
  9 10  1  0  0  0  0
  9 11  1  0  0  0  0
 10 12  3  0  0  0  0
 11 13  3  0  0  0  0
M  END
>  <Substance ID> (iss2_659)
iss2_659

>  <ID_iss2> (iss2_659)
659.0

>  <Canc_iss2> (iss2_659)
1.0

>  <SAL_iss2> (iss2_659)
2

$$$$
iss2_725


 17 18  0  0  0  0  0  0  0  0999 V2000
    7.3193   -4.5967    0.0000 N   0  0  0  0  0  0  0  0  0  0  0  0
    5.9896   -4.5967    0.0000 C   0  0  0  0  0  0  0  0  0  0  0  0
    5.3185   -3.4444    0.0000 C   0  0  0  0  0  0  0  0  0  0  0  0
    5.9896   -2.2920    0.0000 C   0  0  0  0  0  0  0  0  0  0  0  0
    7.3193   -2.2920    0.0000 N   0  0  0  0  0  0  0  0  0  0  0  0
    7.9777   -3.4444    0.0000 C   0  0  0  0  0  0  0  0  0  0  0  0
    2.0008   -2.2920    0.0000 C   0  0  0  0  0  0  0  0  0  0  0  0
    3.3304   -2.2920    0.0000 C   0  0  0  0  0  0  0  0  0  0  0  0
    3.9889   -3.4444    0.0000 C   0  0  0  0  0  0  0  0  0  0  0  0
    3.3304   -4.5967    0.0000 C   0  0  0  0  0  0  0  0  0  0  0  0
    2.0008   -4.5967    0.0000 C   0  0  0  0  0  0  0  0  0  0  0  0
    1.3296   -3.4444    0.0000 C   0  0  0  0  0  0  0  0  0  0  0  0
    0.0000   -3.4444    0.0000 Cl  0  0  0  0  0  0  0  0  0  0  0  0
    5.3185   -1.1523    0.0000 C   0  0  0  0  0  0  0  0  0  0  0  0
    5.9896   -0.0000    0.0000 C   0  0  0  0  0  0  0  0  0  0  0  0
    9.3074   -3.4444    0.0000 N   0  0  0  0  0  0  0  0  0  0  0  0
    5.3185   -5.7490    0.0000 N   0  0  0  0  0  0  0  0  0  0  0  0
  1  2  2  0  0  0  0
  1  6  1  0  0  0  0
  2  3  1  0  0  0  0
  2 17  1  0  0  0  0
  3  4  2  0  0  0  0
  3  9  1  0  0  0  0
  4  5  1  0  0  0  0
  4 14  1  0  0  0  0
  5  6  2  0  0  0  0
  6 16  1  0  0  0  0
  7  8  2  0  0  0  0
  7 12  1  0  0  0  0
  8  9  1  0  0  0  0
  9 10  2  0  0  0  0
 10 11  1  0  0  0  0
 11 12  2  0  0  0  0
 12 13  1  0  0  0  0
 14 15  1  0  0  0  0
M  END
>  <Substance ID> (iss2_725)
iss2_725

>  <ID_iss2> (iss2_725)
725.0

>  <Canc_iss2> (iss2_725)
1.0

>  <SAL_iss2> (iss2_725)
1

$$$$
iss2_850


 14 14  0  0  0  0  0  0  0  0999 V2000
    2.6570   -0.0000    0.0000 Cl  0  0  0  0  0  0  0  0  0  0  0  0
    1.9928   -1.1490    0.0000 C   0  0  0  0  0  0  0  0  0  0  0  0
    2.6570   -2.3040    0.0000 C   0  0  0  0  0  0  0  0  0  0  0  0
    1.9928   -3.4530    0.0000 C   0  0  0  0  0  0  0  0  0  0  0  0
    0.6643   -3.4530    0.0000 C   0  0  0  0  0  0  0  0  0  0  0  0
    0.0000   -2.3040    0.0000 C   0  0  0  0  0  0  0  0  0  0  0  0
    0.6643   -1.1490    0.0000 C   0  0  0  0  0  0  0  0  0  0  0  0
    0.0000   -4.6079    0.0000 Cl  0  0  0  0  0  0  0  0  0  0  0  0
    3.9916   -2.3040    0.0000 O   0  0  0  0  0  0  0  0  0  0  0  0
    4.6558   -3.4530    0.0000 C   0  0  0  0  0  0  0  0  0  0  0  0
    3.9916   -4.6079    0.0000 C   0  0  0  0  0  0  0  0  0  0  0  0
    4.6558   -5.7569    0.0000 O   0  0  0  0  0  0  0  0  0  0  0  0
    2.6570   -4.6079    0.0000 O   0  0  0  0  0  0  0  0  0  0  0  0
    5.9843   -3.4530    0.0000 C   0  0  0  0  0  0  0  0  0  0  0  0
  1  2  1  0  0  0  0
  2  3  2  0  0  0  0
  2  7  1  0  0  0  0
  3  4  1  0  0  0  0
  3  9  1  0  0  0  0
  4  5  2  0  0  0  0
  5  6  1  0  0  0  0
  5  8  1  0  0  0  0
  6  7  2  0  0  0  0
  9 10  1  0  0  0  0
 10 11  1  0  0  0  0
 10 14  1  0  0  0  0
 11 12  2  0  0  0  0
 11 13  1  0  0  0  0
M  END
>  <Substance ID> (iss2_850)
iss2_850

>  <ID_iss2> (iss2_850)
850.0

>  <Canc_iss2> (iss2_850)
1.0

>  <SAL_iss2> (iss2_850)
ND

$$$$
iss2_742


 29 30  0  0  1  0  0  0  0  0999 V2000
    0.6686   -6.4718    0.0000 C   0  0  0  0  0  0  0  0  0  0  0  0
    0.0000   -5.3238    0.0000 C   0  0  0  0  0  0  0  0  0  0  0  0
    0.6686   -4.1631    0.0000 C   0  0  0  0  0  0  0  0  0  0  0  0
    1.9933   -4.1631    0.0000 C   0  0  0  0  0  0  0  0  0  0  0  0
    2.6619   -5.3238    0.0000 C   0  0  0  0  0  0  0  0  0  0  0  0
    1.9933   -6.4718    0.0000 N   0  0  0  0  0  0  0  0  0  0  0  0
    3.9991   -5.3238    0.0000 C   0  0  0  0  0  0  0  0  0  0  0  0
    3.9991   -6.6484    0.0000 C   0  0  0  0  0  0  0  0  0  0  0  0
    5.1472   -7.3170    0.0000 C   0  0  0  0  0  0  0  0  0  0  0  0
    6.2952   -6.6484    0.0000 N   0  0  0  0  0  0  0  0  0  0  0  0
    3.9991   -3.9865    0.0000 C   0  0  0  0  0  0  0  0  0  0  0  0
    2.8385   -3.3305    0.0000 C   0  0  0  0  0  0  0  0  0  0  0  0
    2.8385   -1.9933    0.0000 C   0  0  0  0  0  0  0  0  0  0  0  0
    3.9991   -1.3246    0.0000 C   0  0  0  0  0  0  0  0  0  0  0  0
    5.1472   -1.9933    0.0000 C   0  0  0  0  0  0  0  0  0  0  0  0
    5.1472   -3.3305    0.0000 C   0  0  0  0  0  0  0  0  0  0  0  0
    3.9991   -0.0000    0.0000 Cl  0  0  0  0  0  0  0  0  0  0  0  0
    7.4432   -7.3170    0.0000 C   0  0  0  0  0  0  0  0  0  0  0  0
    6.2952   -5.3238    0.0000 C   0  0  0  0  0  0  0  0  0  0  0  0
    5.3238   -5.3238    0.0000 H   0  0  0  0  0  0  0  0  0  0  0  0
    2.8385   -7.3170    0.0000 H   0  0  0  0  0  0  0  0  0  0  0  0
    5.1472   -8.6417    0.0000 H   0  0  0  0  0  0  0  0  0  0  0  0
    1.6905   -3.9865    0.0000 H   0  0  0  0  0  0  0  0  0  0  0  0
    1.6905   -1.3246    0.0000 H   0  0  0  0  0  0  0  0  0  0  0  0
    6.2952   -1.3246    0.0000 H   0  0  0  0  0  0  0  0  0  0  0  0
    6.2952   -3.9865    0.0000 H   0  0  0  0  0  0  0  0  0  0  0  0
    8.6038   -6.6484    0.0000 H   0  0  0  0  0  0  0  0  0  0  0  0
    7.4432   -8.6417    0.0000 H   0  0  0  0  0  0  0  0  0  0  0  0
    7.4432   -4.6551    0.0000 H   0  0  0  0  0  0  0  0  0  0  0  0
  1  2  2  0  0  0  0
  1  6  1  0  0  0  0
  2  3  1  0  0  0  0
  3  4  2  0  0  0  0
  4  5  1  0  0  0  0
  5  6  2  0  0  0  0
  5  7  1  0  0  0  0
  7  8  1  6  0  0  0
  7 11  1  0  0  0  0
  7 20  1  1  0  0  0
  8  9  1  0  0  0  0
  8 21  1  6  0  0  0
  9 10  1  6  0  0  0
  9 22  1  1  0  0  0
 10 18  1  0  0  0  0
 10 19  1  6  0  0  0
 11 12  2  0  0  0  0
 11 16  1  6  0  0  0
 12 13  1  0  0  0  0
 12 23  1  1  0  0  0
 13 14  2  0  0  0  0
 13 24  1  1  0  0  0
 14 15  1  6  0  0  0
 14 17  1  0  0  0  0
 15 16  2  0  0  0  0
 15 25  1  6  0  0  0
 16 26  1  6  0  0  0
 18 27  1  6  0  0  0
 18 28  1  1  0  0  0
 19 29  1  6  0  0  0
M  END
>  <Substance ID> (iss2_742)
iss2_742

>  <Molecular.Weight> (iss2_742)
274.8

>  <FW_iss2> (iss2_742)
274.8

>  <Parent.Atom.Count> (iss2_742)
19.0

>  <Parent.Molecular.Weight> (iss2_742)
274.8

>  <Rotatable.Bonds> (iss2_742)
5.0

>  <Hydrogen.Bond.Acceptors> (iss2_742)
1.0

>  <Polar.Surface.Area> (iss2_742)
16.13

>  <Lipinski.Score> (iss2_742)
0.0

>  <Canc_iss2> (iss2_742)
1.0

>  <ALogP> (iss2_742)
3.82

>  <Hydrogen.Bond.Donors> (iss2_742)
0.0

>  <ChemName_iss2> (iss2_742)
Chlorpheniramine maleate

>  <SMILES_iss2> (iss2_742)
C[N](CCC(C1=CC=C(C=C1)Cl)C2=NC=CC=C2)C

>  <SAL_iss2> (iss2_742)
1

>  <CAS_iss2> (iss2_742)
113-92-8

>  <Formula_iss2> (iss2_742)
C16H19ClN2

$$$$