iss2_14
  ACD/Labs1030071104  

  6  6  0  0  0  0  0  0  0  0  1 V2000
    0.7842   -2.5182    0.0000 C   0  0  0  0  0  0  0  0  0  0  0  0
    0.0000   -1.4434    0.0000 C   0  0  0  0  0  0  0  0  0  0  0  0
    0.7842   -0.3687    0.0000 N   0  0  0  0  0  0  0  0  0  0  0  0
    2.0496   -0.7842    0.0000 C   0  0  0  0  0  0  0  0  0  0  0  0
    2.0496   -2.1121    0.0000 N   0  0  0  0  0  0  0  0  0  0  0  0
    3.1243   -0.0000    0.0000 S   0  0  0  0  0  0  0  0  0  0  0  0
  1  2  1  0  0  0  0
  1  5  1  0  0  0  0
  2  3  1  0  0  0  0
  3  4  1  0  0  0  0
  4  5  1  0  0  0  0
  4  6  2  0  0  0  0
M  END
>  <ID>
1

>  <Formula>
C3H6N2S

>  <FW>
102.1592

>  <Substance ID>
iss2_14

>  <ID_iss2>
14.0

>  <Canc_iss2>
3.0

>  <SAL_iss2>
1

>  <CAS_iss2>
96-45-7

$$$$
iss2_108
  ACD/Labs1030071104  

 16 17  0  0  0  0  0  0  0  0  1 V2000
    6.6366   -2.3073    0.0000 C   0  0  0  0  0  0  0  0  0  0  0  0
    5.9799   -1.1493    0.0000 C   0  0  0  0  0  0  0  0  0  0  0  0
    6.6366   -0.0000    0.0000 C   0  0  0  0  0  0  0  0  0  0  0  0
    7.9760   -0.0000    0.0000 C   0  0  0  0  0  0  0  0  0  0  0  0
    8.6414   -1.1493    0.0000 C   0  0  0  0  0  0  0  0  0  0  0  0
    7.9760   -2.3073    0.0000 C   0  0  0  0  0  0  0  0  0  0  0  0
    5.9799   -3.4566    0.0000 N   0  0  0  0  0  0  0  0  0  0  0  0
    2.6616   -2.3073    0.0000 C   0  0  0  0  0  0  0  0  0  0  0  0
    3.9837   -2.3073    0.0000 N   0  0  0  0  0  0  0  0  0  0  0  0
    4.6491   -3.4566    0.0000 C   0  0  0  0  0  0  0  0  0  0  0  0
    0.0000   -2.3073    0.0000 C   0  0  0  0  0  0  0  0  0  0  0  0
    0.6654   -3.4566    0.0000 C   0  0  0  0  0  0  0  0  0  0  0  0
    1.9875   -3.4566    0.0000 C   0  0  0  0  0  0  0  0  0  0  0  0
    1.9875   -1.1493    0.0000 C   0  0  0  0  0  0  0  0  0  0  0  0
    0.6654   -1.1493    0.0000 C   0  0  0  0  0  0  0  0  0  0  0  0
    3.9837   -4.6059    0.0000 S   0  0  0  0  0  0  0  0  0  0  0  0
  1  2  1  0  0  0  0
  1  6  1  0  0  0  0
  1  7  1  0  0  0  0
  2  3  1  0  0  0  0
  3  4  1  0  0  0  0
  4  5  1  0  0  0  0
  5  6  1  0  0  0  0
  7 10  1  0  0  0  0
  8  9  1  0  0  0  0
  8 13  1  0  0  0  0
  8 14  1  0  0  0  0
  9 10  1  0  0  0  0
 10 16  2  0  0  0  0
 11 12  1  0  0  0  0
 11 15  1  0  0  0  0
 12 13  1  0  0  0  0
 14 15  1  0  0  0  0
M  END
>  <ID>
2

>  <Formula>
C13H24N2S

>  <FW>
240.4091

>  <Substance ID>
iss2_108

>  <ID_iss2>
108.0

>  <Canc_iss2>
1.0

>  <SAL_iss2>
1

>  <CAS_iss2>
1212-29-9

$$$$
iss2_115
  ACD/Labs1030071104  

 11 11  0  0  0  0  0  0  0  0  1 V2000
    3.3286   -2.3035    0.0000 C   0  0  0  0  0  0  0  0  0  0  0  0
    3.9851   -3.4553    0.0000 C   0  0  0  0  0  0  0  0  0  0  0  0
    1.9983   -4.6071    0.0000 C   0  0  0  0  0  0  0  0  0  0  0  0
    1.3303   -3.4553    0.0000 C   0  0  0  0  0  0  0  0  0  0  0  0
    3.3286   -4.6071    0.0000 N   0  0  0  0  0  0  0  0  0  0  0  0
    1.9983   -2.3035    0.0000 C   0  0  0  0  0  0  0  0  0  0  0  0
    1.3303   -1.1518    0.0000 C   0  0  0  0  0  0  0  0  0  0  0  0
    1.9983   -0.0000    0.0000 N   0  0  0  0  0  0  0  0  0  0  0  0
    1.3303   -5.7588    0.0000 C   0  0  0  0  0  0  0  0  0  0  0  0
    0.0000   -5.7588    0.0000 C   0  0  0  0  0  0  0  0  0  0  0  0
    0.0000   -1.1518    0.0000 S   0  0  0  0  0  0  0  0  0  0  0  0
  1  2  2  0  0  0  0
  1  6  1  0  0  0  0
  2  5  1  0  0  0  0
  3  4  1  0  0  0  0
  3  5  2  0  0  0  0
  3  9  1  0  0  0  0
  4  6  2  0  0  0  0
  6  7  1  0  0  0  0
  7  8  1  0  0  0  0
  7 11  2  0  0  0  0
  9 10  1  0  0  0  0
M  END
>  <ID>
3

>  <Formula>
C8H10N2S

>  <FW>
166.2445

>  <Substance ID>
iss2_115

>  <ID_iss2>
115.0

>  <Canc_iss2>
1.0

>  <SAL_iss2>
1

>  <CAS_iss2>
536-33-4

$$$$
iss2_134
  ACD/Labs1030071104  

 10 10  0  0  0  0  0  0  0  0  1 V2000
    2.3054   -3.9880    0.0000 C   0  0  0  0  0  0  0  0  0  0  0  0
    1.1527   -4.6480    0.0000 C   0  0  0  0  0  0  0  0  0  0  0  0
    0.0000   -2.6587    0.0000 C   0  0  0  0  0  0  0  0  0  0  0  0
    1.1527   -1.9894    0.0000 C   0  0  0  0  0  0  0  0  0  0  0  0
    0.0000   -3.9880    0.0000 C   0  0  0  0  0  0  0  0  0  0  0  0
    2.3054   -2.6587    0.0000 C   0  0  0  0  0  0  0  0  0  0  0  0
    3.4581   -1.9894    0.0000 N   0  0  0  0  0  0  0  0  0  0  0  0
    3.4581   -0.6600    0.0000 C   0  0  0  0  0  0  0  0  0  0  0  0
    2.3054   -0.0000    0.0000 S   0  0  0  0  0  0  0  0  0  0  0  0
    4.6108   -0.0000    0.0000 N   0  0  0  0  0  0  0  0  0  0  0  0
  1  2  2  0  0  0  0
  1  6  1  0  0  0  0
  2  5  1  0  0  0  0
  3  4  1  0  0  0  0
  3  5  2  0  0  0  0
  4  6  2  0  0  0  0
  6  7  1  0  0  0  0
  7  8  1  0  0  0  0
  8  9  2  0  0  0  0
  8 10  1  0  0  0  0
M  END
>  <ID>
4

>  <Formula>
C7H8N2S

>  <FW>
152.2179

>  <Substance ID>
iss2_134

>  <ID_iss2>
134.0

>  <Canc_iss2>
1.0

>  <SAL_iss2>
1

>  <CAS_iss2>
103-85-5

$$$$
iss2_140
  ACD/Labs1030071104  

 16 15  0  0  0  0  0  0  0  0  1 V2000
    2.3103   -2.6729    0.0000 N   0  0  0  0  0  0  0  0  0  0  0  0
    1.1500   -2.0099    0.0000 C   0  0  0  0  0  0  0  0  0  0  0  0
    2.3103   -3.9990    0.0000 C   0  0  0  0  0  0  0  0  0  0  0  0
    3.4603   -2.0099    0.0000 C   0  0  0  0  0  0  0  0  0  0  0  0
    0.0000   -2.6729    0.0000 C   0  0  0  0  0  0  0  0  0  0  0  0
    1.1500   -4.6620    0.0000 C   0  0  0  0  0  0  0  0  0  0  0  0
    3.4603   -0.6734    0.0000 S   0  0  0  0  0  0  0  0  0  0  0  0
    4.6102   -2.6729    0.0000 S   0  0  0  0  0  0  0  0  0  0  0  0
    5.7499   -2.0099    0.0000 S   0  0  0  0  0  0  0  0  0  0  0  0
    6.8998   -2.6729    0.0000 C   0  0  0  0  0  0  0  0  0  0  0  0
    8.0602   -2.0099    0.0000 N   0  0  0  0  0  0  0  0  0  0  0  0
    6.8998   -3.9990    0.0000 S   0  0  0  0  0  0  0  0  0  0  0  0
    8.0602   -0.6734    0.0000 C   0  0  0  0  0  0  0  0  0  0  0  0
    9.2101   -0.0000    0.0000 C   0  0  0  0  0  0  0  0  0  0  0  0
    9.2101   -2.6729    0.0000 C   0  0  0  0  0  0  0  0  0  0  0  0
   10.3601   -2.0099    0.0000 C   0  0  0  0  0  0  0  0  0  0  0  0
  1  2  1  0  0  0  0
  1  3  1  0  0  0  0
  1  4  1  0  0  0  0
  2  5  1  0  0  0  0
  3  6  1  0  0  0  0
  4  7  2  0  0  0  0
  4  8  1  0  0  0  0
  8  9  1  0  0  0  0
  9 10  1  0  0  0  0
 10 11  1  0  0  0  0
 10 12  2  0  0  0  0
 11 13  1  0  0  0  0
 11 15  1  0  0  0  0
 13 14  1  0  0  0  0
 15 16  1  0  0  0  0
M  END
>  <ID>
5

>  <Formula>
C10H20N2S4

>  <FW>
296.5433

>  <Substance ID>
iss2_140

>  <ID_iss2>
140.0

>  <Canc_iss2>
1.0

>  <SAL_iss2>
1

>  <CAS_iss2>
97-77-8

$$$$
iss2_182
  ACD/Labs1030071104  

  8  7  0  0  0  0  0  0  0  0  1 V2000
    3.9878   -1.1496    0.0000 N   0  0  0  0  0  0  0  0  0  0  0  0
    4.6585   -2.3053    0.0000 C   0  0  0  0  0  0  0  0  0  0  0  0
    5.9877   -2.3053    0.0000 C   0  0  0  0  0  0  0  0  0  0  0  0
    0.0000   -3.4549    0.0000 C   0  0  0  0  0  0  0  0  0  0  0  0
    0.6706   -2.3053    0.0000 C   0  0  0  0  0  0  0  0  0  0  0  0
    1.9999   -2.3053    0.0000 N   0  0  0  0  0  0  0  0  0  0  0  0
    2.6586   -1.1496    0.0000 C   0  0  0  0  0  0  0  0  0  0  0  0
    1.9999   -0.0000    0.0000 S   0  0  0  0  0  0  0  0  0  0  0  0
  1  2  1  0  0  0  0
  1  7  1  0  0  0  0
  2  3  1  0  0  0  0
  4  5  1  0  0  0  0
  5  6  1  0  0  0  0
  6  7  1  0  0  0  0
  7  8  2  0  0  0  0
M  END
>  <ID>
6

>  <Formula>
C5H12N2S

>  <FW>
132.2283

>  <Substance ID>
iss2_182

>  <ID_iss2>
182.0

>  <Canc_iss2>
3.0

>  <SAL_iss2>
1

>  <CAS_iss2>
105-55-5

$$$$
iss2_190
  ACD/Labs1030071104  

  8  7  0  0  0  0  0  0  0  0  1 V2000
    5.5925   -1.3646    0.0000 N   0  0  0  0  0  0  0  0  0  0  0  0
    4.4796   -2.0301    0.0000 C   0  0  0  0  0  0  0  0  0  0  0  0
    3.3387   -1.3981    0.0000 N   0  0  0  0  0  0  0  0  0  0  0  0
    2.2482   -2.0524    0.0000 N   0  0  0  0  0  0  0  0  0  0  0  0
    1.1129   -1.4205    0.0000 C   0  0  0  0  0  0  0  0  0  0  0  0
    0.0000   -2.0860    0.0000 N   0  0  0  0  0  0  0  0  0  0  0  0
    1.0905   -0.0000    0.0000 S   0  0  0  0  0  0  0  0  0  0  0  0
    4.5019   -3.4506    0.0000 S   0  0  0  0  0  0  0  0  0  0  0  0
  1  2  1  0  0  0  0
  2  3  1  0  0  0  0
  2  8  2  0  0  0  0
  3  4  1  0  0  0  0
  4  5  1  0  0  0  0
  5  6  1  0  0  0  0
  5  7  2  0  0  0  0
M  END
>  <ID>
7

>  <Formula>
C2H6N4S2

>  <FW>
150.2280

>  <Substance ID>
iss2_190

>  <ID_iss2>
190.0

>  <Canc_iss2>
2.0

>  <SAL_iss2>
1

>  <CAS_iss2>
142-46-1

$$$$
iss2_236
  ACD/Labs1030071104  

  7  6  0  0  0  0  0  0  0  0  1 V2000
    1.1531   -2.0030    0.0000 N   0  0  0  0  0  0  0  0  0  0  0  0
    0.0000   -1.3323    0.0000 C   0  0  0  0  0  0  0  0  0  0  0  0
    1.1531   -3.3307    0.0000 C   0  0  0  0  0  0  0  0  0  0  0  0
    2.3016   -1.3323    0.0000 C   0  0  0  0  0  0  0  0  0  0  0  0
    3.4547   -2.0030    0.0000 N   0  0  0  0  0  0  0  0  0  0  0  0
    2.3016   -0.0000    0.0000 S   0  0  0  0  0  0  0  0  0  0  0  0
    4.5940   -1.3323    0.0000 C   0  0  0  0  0  0  0  0  0  0  0  0
  1  2  1  0  0  0  0
  1  3  1  0  0  0  0
  1  4  1  0  0  0  0
  4  5  1  0  0  0  0
  4  6  2  0  0  0  0
  5  7  1  0  0  0  0
M  END
>  <ID>
9

>  <Formula>
C4H10N2S

>  <FW>
118.2017

>  <Substance ID>
iss2_236

>  <ID_iss2>
236.0

>  <Canc_iss2>
3.0

>  <SAL_iss2>
1

>  <CAS_iss2>
2489-77-2

$$$$
iss2_455
  ACD/Labs1030071104  

 22 23  0  0  0  0  0  0  0  0  1 V2000
    0.0000   -2.0045    0.0000 C   0  0  0  0  0  0  0  0  0  0  0  0
    1.1545   -1.3448    0.0000 C   0  0  0  0  0  0  0  0  0  0  0  0
    2.3089   -3.3366    0.0000 C   0  0  0  0  0  0  0  0  0  0  0  0
    1.1545   -3.9963    0.0000 C   0  0  0  0  0  0  0  0  0  0  0  0
    2.3089   -2.0045    0.0000 C   0  0  0  0  0  0  0  0  0  0  0  0
    0.0000   -3.3366    0.0000 C   0  0  0  0  0  0  0  0  0  0  0  0
    3.4634   -3.9963    0.0000 C   0  0  0  0  0  0  0  0  0  0  0  0
    1.1545   -0.0000    0.0000 C   0  0  0  0  0  0  0  0  0  0  0  0
    3.4634   -1.3448    0.0000 C   0  0  0  0  0  0  0  0  0  0  0  0
    4.6052   -3.3366    0.0000 N   0  0  0  0  0  0  0  0  0  0  0  0
    5.7597   -5.3283    0.0000 N   0  0  0  0  0  0  0  0  0  0  0  0
    4.6052   -5.9880    0.0000 C   0  0  0  0  0  0  0  0  0  0  0  0
    5.7597   -3.9963    0.0000 C   0  0  0  0  0  0  0  0  0  0  0  0
    3.4634   -5.3283    0.0000 C   0  0  0  0  0  0  0  0  0  0  0  0
    4.6052   -7.3201    0.0000 Cl  0  0  0  0  0  0  0  0  0  0  0  0
    6.9268   -3.3366    0.0000 C   0  0  0  0  0  0  0  0  0  0  0  0
    8.0813   -3.9963    0.0000 C   0  0  0  0  0  0  0  0  0  0  0  0
    9.2231   -3.3366    0.0000 N   0  0  0  0  0  0  0  0  0  0  0  0
    8.0813   -5.3283    0.0000 S   0  0  0  0  0  0  0  0  0  0  0  0
   10.3776   -3.9963    0.0000 C   0  0  0  0  0  0  0  0  0  0  0  0
   11.5321   -3.3366    0.0000 C   0  0  0  0  0  0  0  0  0  0  0  0
   12.6865   -3.9963    0.0000 O   0  0  0  0  0  0  0  0  0  0  0  0
  1  2  2  0  0  0  0
  1  6  1  0  0  0  0
  2  5  1  0  0  0  0
  2  8  1  0  0  0  0
  3  4  1  0  0  0  0
  3  5  2  0  0  0  0
  3  7  1  0  0  0  0
  4  6  2  0  0  0  0
  5  9  1  0  0  0  0
  7 10  2  0  0  0  0
  7 14  1  0  0  0  0
 10 13  1  0  0  0  0
 11 12  1  0  0  0  0
 11 13  2  0  0  0  0
 12 14  2  0  0  0  0
 12 15  1  0  0  0  0
 13 16  1  0  0  0  0
 16 17  1  0  0  0  0
 17 18  1  0  0  0  0
 17 19  2  0  0  0  0
 18 20  1  0  0  0  0
 20 21  1  0  0  0  0
 21 22  1  0  0  0  0
M  END
>  <ID>
10

>  <Formula>
C16H18ClN3OS

>  <FW>
335.8524

>  <Substance ID>
iss2_455

>  <ID_iss2>
455.0

>  <Canc_iss2>
3.0

>  <SAL_iss2>
1

>  <CAS_iss2>
65089-17-0

$$$$
iss2_479
  ACD/Labs1030071104  

  7  7  0  0  0  0  0  0  0  0  1 V2000
    0.9869   -1.8631    0.0000 N   0  0  0  0  0  0  0  0  0  0  0  0
    0.8493   -0.5304    0.0000 C   0  0  0  0  0  0  0  0  0  0  0  0
    2.0645   -0.0000    0.0000 C   0  0  0  0  0  0  0  0  0  0  0  0
    2.9507   -0.9869    0.0000 N   0  0  0  0  0  0  0  0  0  0  0  0
    2.2927   -2.1417    0.0000 C   0  0  0  0  0  0  0  0  0  0  0  0
    0.0000   -2.7493    0.0000 C   0  0  0  0  0  0  0  0  0  0  0  0
    2.8265   -3.3569    0.0000 S   0  0  0  0  0  0  0  0  0  0  0  0
  1  2  1  0  0  0  0
  1  5  1  0  0  0  0
  1  6  1  0  0  0  0
  2  3  2  0  0  0  0
  3  4  1  0  0  0  0
  4  5  1  0  0  0  0
  5  7  2  0  0  0  0
M  END
>  <ID>
11

>  <Formula>
C4H6N2S

>  <FW>
114.1699

>  <Substance ID>
iss2_479

>  <ID_iss2>
479.0

>  <Canc_iss2>
3.0

>  <SAL_iss2>
1

>  <CAS_iss2>
60-56-0

$$$$
iss2_546
  ACD/Labs1030071104  

 15 16  0  0  0  0  0  0  0  0  1 V2000
    5.7709   -1.9936    0.0000 N   0  0  0  0  0  0  0  0  0  0  0  0
    5.7709   -0.6618    0.0000 C   0  0  0  0  0  0  0  0  0  0  0  0
    6.9251   -0.0000    0.0000 C   0  0  0  0  0  0  0  0  0  0  0  0
    8.0712   -0.6618    0.0000 O   0  0  0  0  0  0  0  0  0  0  0  0
    8.0712   -1.9936    0.0000 C   0  0  0  0  0  0  0  0  0  0  0  0
    6.9251   -2.6554    0.0000 C   0  0  0  0  0  0  0  0  0  0  0  0
    0.0000   -3.9872    0.0000 O   0  0  0  0  0  0  0  0  0  0  0  0
    0.0000   -2.6554    0.0000 C   0  0  0  0  0  0  0  0  0  0  0  0
    1.1623   -1.9936    0.0000 C   0  0  0  0  0  0  0  0  0  0  0  0
    2.3084   -2.6554    0.0000 N   0  0  0  0  0  0  0  0  0  0  0  0
    2.3084   -3.9872    0.0000 C   0  0  0  0  0  0  0  0  0  0  0  0
    1.1623   -4.6490    0.0000 C   0  0  0  0  0  0  0  0  0  0  0  0
    3.4625   -1.9936    0.0000 S   0  0  0  0  0  0  0  0  0  0  0  0
    4.6087   -2.6554    0.0000 C   0  0  0  0  0  0  0  0  0  0  0  0
    4.6087   -3.9872    0.0000 S   0  0  0  0  0  0  0  0  0  0  0  0
  1  2  1  0  0  0  0
  1  6  1  0  0  0  0
  1 14  1  0  0  0  0
  2  3  1  0  0  0  0
  3  4  1  0  0  0  0
  4  5  1  0  0  0  0
  5  6  1  0  0  0  0
  7  8  1  0  0  0  0
  7 12  1  0  0  0  0
  8  9  1  0  0  0  0
  9 10  1  0  0  0  0
 10 11  1  0  0  0  0
 10 13  1  0  0  0  0
 11 12  1  0  0  0  0
 13 14  1  0  0  0  0
 14 15  2  0  0  0  0
M  END
>  <ID>
12

>  <Formula>
C9H16N2O2S2

>  <FW>
248.3676

>  <Substance ID>
iss2_546

>  <ID_iss2>
546.0

>  <Canc_iss2>
3.0

>  <SAL_iss2>
ND

>  <CAS_iss2>
13752-51-7

$$$$
iss2_609
  ACD/Labs1030071104  

  8  8  0  0  0  0  0  0  0  0  1 V2000
    2.3060   -0.0000    0.0000 C   0  0  0  0  0  0  0  0  0  0  0  0
    3.4590   -0.6583    0.0000 C   0  0  0  0  0  0  0  0  0  0  0  0
    3.4590   -1.9868    0.0000 N   0  0  0  0  0  0  0  0  0  0  0  0
    2.3060   -2.6611    0.0000 C   0  0  0  0  0  0  0  0  0  0  0  0
    1.1530   -1.9868    0.0000 N   0  0  0  0  0  0  0  0  0  0  0  0
    1.1530   -0.6583    0.0000 C   0  0  0  0  0  0  0  0  0  0  0  0
    0.0000   -0.0000    0.0000 O   0  0  0  0  0  0  0  0  0  0  0  0
    2.3060   -3.9896    0.0000 S   0  0  0  0  0  0  0  0  0  0  0  0
  1  2  2  0  0  0  0
  1  6  1  0  0  0  0
  2  3  1  0  0  0  0
  3  4  1  0  0  0  0
  4  5  1  0  0  0  0
  4  8  2  0  0  0  0
  5  6  1  0  0  0  0
  6  7  2  0  0  0  0
M  END
>  <ID>
13

>  <Formula>
C4H4N2OS

>  <FW>
128.1534

>  <Substance ID>
iss2_609

>  <ID_iss2>
609.0

>  <Canc_iss2>
3.0

>  <SAL_iss2>
ND

>  <CAS_iss2>
141-90-2

$$$$
iss2_625
  ACD/Labs1030071104  

  4  3  0  0  0  0  0  0  0  0  1 V2000
    0.0000   -1.9973    0.0000 C   0  0  0  0  0  0  0  0  0  0  0  0
    1.1505   -1.3277    0.0000 C   0  0  0  0  0  0  0  0  0  0  0  0
    2.3010   -1.9973    0.0000 N   0  0  0  0  0  0  0  0  0  0  0  0
    1.1505   -0.0000    0.0000 S   0  0  0  0  0  0  0  0  0  0  0  0
  1  2  1  0  0  0  0
  2  3  1  0  0  0  0
  2  4  2  0  0  0  0
M  END
>  <ID>
14

>  <Formula>
C2H5NS

>  <FW>
75.1338

>  <Substance ID>
iss2_625

>  <ID_iss2>
625.0

>  <Canc_iss2>
3.0

>  <SAL_iss2>
1

>  <CAS_iss2>
62-55-5

$$$$
iss2_631
  ACD/Labs1030071104  

  4  3  0  0  0  0  0  0  0  0  1 V2000
    0.0000   -1.9915    0.0000 N   0  0  0  0  0  0  0  0  0  0  0  0
    1.1538   -1.3315    0.0000 C   0  0  0  0  0  0  0  0  0  0  0  0
    2.3076   -1.9915    0.0000 N   0  0  0  0  0  0  0  0  0  0  0  0
    1.1538   -0.0000    0.0000 S   0  0  0  0  0  0  0  0  0  0  0  0
  1  2  1  0  0  0  0
  2  3  1  0  0  0  0
  2  4  2  0  0  0  0
M  END
>  <ID>
15

>  <Formula>
CH4N2S

>  <FW>
76.1219

>  <Substance ID>
iss2_631

>  <ID_iss2>
631.0

>  <Canc_iss2>
3.0

>  <SAL_iss2>
1

>  <CAS_iss2>
62-56-6

$$$$
iss2_885
  ACD/Labs1030071104  

 22 23  0  0  0  0  0  0  0  0  1 V2000
    3.4610   -5.9839    0.0000 S   0  0  0  0  0  0  0  0  0  0  0  0
    3.4610   -4.6527    0.0000 C   0  0  0  0  0  0  0  0  0  0  0  0
    2.3073   -3.9935    0.0000 N   0  0  0  0  0  0  0  0  0  0  0  0
    1.1537   -4.6527    0.0000 C   0  0  0  0  0  0  0  0  0  0  0  0
    0.0000   -3.9935    0.0000 C   0  0  0  0  0  0  0  0  0  0  0  0
    0.0000   -2.6623    0.0000 C   0  0  0  0  0  0  0  0  0  0  0  0
    1.1537   -1.9904    0.0000 C   0  0  0  0  0  0  0  0  0  0  0  0
    2.3073   -2.6623    0.0000 C   0  0  0  0  0  0  0  0  0  0  0  0
    4.6147   -3.9935    0.0000 S   0  0  0  0  0  0  0  0  0  0  0  0
    5.7684   -4.6527    0.0000 S   0  0  0  0  0  0  0  0  0  0  0  0
    6.9094   -3.9935    0.0000 S   0  0  0  0  0  0  0  0  0  0  0  0
    8.0630   -4.6527    0.0000 S   0  0  0  0  0  0  0  0  0  0  0  0
    9.2167   -3.9935    0.0000 S   0  0  0  0  0  0  0  0  0  0  0  0
   10.3704   -4.6527    0.0000 S   0  0  0  0  0  0  0  0  0  0  0  0
   11.5241   -3.9935    0.0000 C   0  0  0  0  0  0  0  0  0  0  0  0
   12.6777   -4.6527    0.0000 S   0  0  0  0  0  0  0  0  0  0  0  0
   11.5241   -2.6623    0.0000 N   0  0  0  0  0  0  0  0  0  0  0  0
   10.3704   -1.9904    0.0000 C   0  0  0  0  0  0  0  0  0  0  0  0
   10.3704   -0.6592    0.0000 C   0  0  0  0  0  0  0  0  0  0  0  0
   11.5241   -0.0000    0.0000 C   0  0  0  0  0  0  0  0  0  0  0  0
   12.6777   -0.6592    0.0000 C   0  0  0  0  0  0  0  0  0  0  0  0
   12.6777   -1.9904    0.0000 C   0  0  0  0  0  0  0  0  0  0  0  0
  1  2  2  0  0  0  0
  2  3  1  0  0  0  0
  2  9  1  0  0  0  0
  3  4  1  0  0  0  0
  3  8  1  0  0  0  0
  4  5  1  0  0  0  0
  5  6  1  0  0  0  0
  6  7  1  0  0  0  0
  7  8  1  0  0  0  0
  9 10  1  0  0  0  0
 10 11  1  0  0  0  0
 11 12  1  0  0  0  0
 12 13  1  0  0  0  0
 13 14  1  0  0  0  0
 14 15  1  0  0  0  0
 15 16  2  0  0  0  0
 15 17  1  0  0  0  0
 17 18  1  0  0  0  0
 17 22  1  0  0  0  0
 18 19  1  0  0  0  0
 19 20  1  0  0  0  0
 20 21  1  0  0  0  0
 21 22  1  0  0  0  0
M  END
>  <ID>
17

>  <Formula>
C12H20N2S8

>  <FW>
448.8287

>  <Substance ID>
iss2_885

>  <ID_iss2>
885.0

>  <Canc_iss2>
1.0

>  <SAL_iss2>
ND

>  <CAS_iss2>
971-15-3

$$$$
iss2_356
  ACD/Labs1030071104  

  9  9  0  0  0  0  0  0  0  0  1 V2000
    2.0040   -3.4505    0.0000 N   0  0  0  0  0  0  0  0  0  0  0  0
    1.3314   -2.3080    0.0000 C   0  0  0  0  0  0  0  0  0  0  0  0
    2.0040   -1.1563    0.0000 N   0  0  0  0  0  0  0  0  0  0  0  0
    3.3399   -1.1563    0.0000 C   0  0  0  0  0  0  0  0  0  0  0  0
    3.9987   -2.3080    0.0000 C   0  0  0  0  0  0  0  0  0  0  0  0
    3.3399   -3.4505    0.0000 C   0  0  0  0  0  0  0  0  0  0  0  0
    3.9987   -0.0000    0.0000 C   0  0  0  0  0  0  0  0  0  0  0  0
    3.9987   -4.6068    0.0000 O   0  0  0  0  0  0  0  0  0  0  0  0
    0.0000   -2.3080    0.0000 S   0  0  0  0  0  0  0  0  0  0  0  0
  1  2  1  0  0  0  0
  1  6  1  0  0  0  0
  2  3  1  0  0  0  0
  2  9  2  0  0  0  0
  3  4  1  0  0  0  0
  4  5  2  0  0  0  0
  4  7  1  0  0  0  0
  5  6  1  0  0  0  0
  6  8  2  0  0  0  0
M  END
>  <ID>
18

>  <Formula>
C5H6N2OS

>  <FW>
142.1800

>  <Substance ID>
iss2_356

>  <Canc_iss2>
3.0

>  <SAL_iss2>
1

>  <CAS_iss2>
56-04-2

>  <Molecular.Weight>
142.2

>  <FW_iss2>
142.2

>  <Parent.Atom.Count>
9.0

>  <Parent.Molecular.Weight>
142.2

>  <Rotatable.Bonds>
0.0

>  <Hydrogen.Bond.Acceptors>
4.0

>  <Polar.Surface.Area>
48.65

>  <Lipinski.Score>
0.0

>  <ALogP>
0.66

>  <Hydrogen.Bond.Donors>
2.0

>  <ChemName_iss2>
Methylthiouracil

>  <SMILES_iss2>
CC1=CC(=O)NC(=S)N1

>  <Formula_iss2>
C5H6N2OS

$$$$
iss2_582
  ACD/Labs1030071104  

 11 11  0  0  0  0  0  0  0  0  1 V2000
    3.4599   -5.3275    0.0000 C   0  0  0  0  0  0  0  0  0  0  0  0
    2.3106   -5.9860    0.0000 N   0  0  0  0  0  0  0  0  0  0  0  0
    1.1553   -5.3275    0.0000 C   0  0  0  0  0  0  0  0  0  0  0  0
    1.1553   -3.9926    0.0000 N   0  0  0  0  0  0  0  0  0  0  0  0
    2.3106   -3.3222    0.0000 C   0  0  0  0  0  0  0  0  0  0  0  0
    3.4599   -3.9926    0.0000 C   0  0  0  0  0  0  0  0  0  0  0  0
    4.6032   -5.9860    0.0000 O   0  0  0  0  0  0  0  0  0  0  0  0
    0.0000   -5.9860    0.0000 S   0  0  0  0  0  0  0  0  0  0  0  0
    2.3106   -1.9933    0.0000 C   0  0  0  0  0  0  0  0  0  0  0  0
    1.1553   -1.3289    0.0000 C   0  0  0  0  0  0  0  0  0  0  0  0
    1.1553   -0.0000    0.0000 C   0  0  0  0  0  0  0  0  0  0  0  0
  1  2  1  0  0  0  0
  1  6  1  0  0  0  0
  1  7  2  0  0  0  0
  2  3  1  0  0  0  0
  3  4  1  0  0  0  0
  3  8  2  0  0  0  0
  4  5  1  0  0  0  0
  5  6  2  0  0  0  0
  5  9  1  0  0  0  0
  9 10  1  0  0  0  0
 10 11  1  0  0  0  0
M  END
>  <ID>
19

>  <Formula>
C7H10N2OS

>  <FW>
170.2332

>  <Substance ID>
iss2_582

>  <Canc_iss2>
3.0

>  <SAL_iss2>
ND

>  <CAS_iss2>
51-52-5

>  <Molecular.Weight>
170.2

>  <FW_iss2>
170.2

>  <Parent.Atom.Count>
11.0

>  <Parent.Molecular.Weight>
170.2

>  <Rotatable.Bonds>
2.0

>  <Hydrogen.Bond.Acceptors>
4.0

>  <Polar.Surface.Area>
48.65

>  <Lipinski.Score>
0.0

>  <ALogP>
1.3

>  <Hydrogen.Bond.Donors>
2.0

>  <ChemName_iss2>
Propylthiouracil

>  <SMILES_iss2>
O=C1C=C(NC(=S)N1)CCC

>  <Formula_iss2>
C7H10N2OS

$$$$
iss2_604
  ACD/Labs1030071104  

 19 21  0  0  1  0  0  0  0  0  1 V2000
    4.3998   -5.1331    0.0000 C   0  0  0  0  0  0  0  0  0  0  0  0
    3.9862   -6.4023    0.0000 C   0  0  0  0  0  0  0  0  0  0  0  0
    3.3281   -4.3528    0.0000 O   0  0  0  0  0  0  0  0  0  0  0  0
    2.6700   -6.4023    0.0000 C   0  0  0  0  0  0  0  0  0  0  0  0
    2.2563   -5.1331    0.0000 C   0  0  0  0  0  0  0  0  0  0  0  0
    0.9871   -4.7195    0.0000 C   0  0  0  0  0  0  0  0  0  0  0  0
    1.8803   -7.4741    0.0000 O   0  0  0  0  0  0  0  0  0  0  0  0
    0.0000   -5.6126    0.0000 O   0  0  0  0  0  0  0  0  0  0  0  0
    5.6690   -4.7195    0.0000 N   0  0  0  0  0  0  0  0  0  0  0  0
    7.8219   -4.7195    0.0000 N   0  0  0  0  0  0  0  0  0  0  0  0
    6.7502   -5.5092    0.0000 C   0  0  0  0  0  0  0  0  0  0  0  0
    7.4082   -3.4597    0.0000 C   0  0  0  0  0  0  0  0  0  0  0  0
    6.0733   -3.4597    0.0000 C   0  0  0  0  0  0  0  0  0  0  0  0
    5.4152   -2.3033    0.0000 N   0  0  0  0  0  0  0  0  0  0  0  0
    6.0733   -1.1564    0.0000 C   0  0  0  0  0  0  0  0  0  0  0  0
    7.4082   -1.1564    0.0000 N   0  0  0  0  0  0  0  0  0  0  0  0
    8.0663   -2.3033    0.0000 C   0  0  0  0  0  0  0  0  0  0  0  0
    9.4013   -2.3033    0.0000 S   0  0  0  0  0  0  0  0  0  0  0  0
    5.4152   -0.0000    0.0000 N   0  0  0  0  0  0  0  0  0  0  0  0
  1  2  1  1  0  0  0
  1  3  1  0  0  0  0
  1  9  1  0  0  0  0
  2  4  1  0  0  0  0
  3  5  1  0  0  0  0
  5  4  1  1  0  0  0
  4  7  1  0  0  0  0
  5  6  1  0  0  0  0
  6  8  1  0  0  0  0
  9 13  1  0  0  0  0
  9 11  1  0  0  0  0
 10 12  1  0  0  0  0
 10 11  2  0  0  0  0
 12 13  2  0  0  0  0
 12 17  1  0  0  0  0
 13 14  1  0  0  0  0
 14 15  2  0  0  0  0
 15 16  1  0  0  0  0
 15 19  1  0  0  0  0
 16 17  1  0  0  0  0
 17 18  2  0  0  0  0
M  END
>  <ID>
20

>  <Formula>
C10H13N5O3S

>  <FW>
283.3081

>  <Substance ID>
iss2_604

>  <Canc_iss2>
3.0

>  <SAL_iss2>
ND

>  <CAS_iss2>
64039-27-6

>  <Molecular.Weight>
283.3

>  <FW_iss2>
283.3

>  <Parent.Atom.Count>
19.0

>  <Parent.Molecular.Weight>
283.3

>  <Rotatable.Bonds>
2.0

>  <Hydrogen.Bond.Acceptors>
8.0

>  <Polar.Surface.Area>
122.2

>  <Lipinski.Score>
0.0

>  <ALogP>
-0.37

>  <Hydrogen.Bond.Donors>
4.0

>  <ChemName_iss2>
beta-Thioguanine deoxyriboside

>  <SMILES_iss2>
N1/C(=N\C2=C(C1=S)N=CN2[C@]3(C([C@@]([C@](O3)(CO)[H])(O)[H])([H])[H])[H])N

>  <Formula_iss2>
C10H13N5O3S

$$$$
iss2_730
  ACD/Labs1030071104  

 19 21  0  0  1  0  0  0  0  0  1 V2000
    2.2165   -4.7707    0.0000 C   0  0  0  0  0  0  0  0  0  0  0  0
    1.3183   -3.7902    0.0000 C   0  0  0  0  0  0  0  0  0  0  0  0
    3.4359   -4.2269    0.0000 O   0  0  0  0  0  0  0  0  0  0  0  0
    1.9940   -2.6367    0.0000 C   0  0  0  0  0  0  0  0  0  0  0  0
    3.2794   -2.9086    0.0000 C   0  0  0  0  0  0  0  0  0  0  0  0
    1.9445   -6.0726    0.0000 C   0  0  0  0  0  0  0  0  0  0  0  0
    0.0000   -3.9221    0.0000 O   0  0  0  0  0  0  0  0  0  0  0  0
    2.9251   -6.9707    0.0000 O   0  0  0  0  0  0  0  0  0  0  0  0
    4.2846   -2.0105    0.0000 N   0  0  0  0  0  0  0  0  0  0  0  0
    5.5865   -2.2989    0.0000 C   0  0  0  0  0  0  0  0  0  0  0  0
    6.2456   -1.1535    0.0000 C   0  0  0  0  0  0  0  0  0  0  0  0
    5.3475   -0.1483    0.0000 N   0  0  0  0  0  0  0  0  0  0  0  0
    4.1445   -0.6921    0.0000 C   0  0  0  0  0  0  0  0  0  0  0  0
    6.2456   -3.4524    0.0000 N   0  0  0  0  0  0  0  0  0  0  0  0
    7.5804   -1.1535    0.0000 C   0  0  0  0  0  0  0  0  0  0  0  0
    8.2396   -0.0000    0.0000 S   0  0  0  0  0  0  0  0  0  0  0  0
    8.2396   -4.6059    0.0000 N   0  0  0  0  0  0  0  0  0  0  0  0
    8.2396   -2.2989    0.0000 N   0  0  0  0  0  0  0  0  0  0  0  0
    7.5804   -3.4524    0.0000 C   0  0  0  0  0  0  0  0  0  0  0  0
  1  2  1  1  0  0  0
  1  3  1  0  0  0  0
  1  6  1  0  0  0  0
  2  4  1  0  0  0  0
  2  7  1  0  0  0  0
  3  5  1  0  0  0  0
  5  4  1  1  0  0  0
  5  9  1  0  0  0  0
  6  8  1  0  0  0  0
  9 10  1  0  0  0  0
  9 13  1  0  0  0  0
 10 11  2  0  0  0  0
 10 14  1  0  0  0  0
 11 12  1  0  0  0  0
 11 15  1  0  0  0  0
 12 13  2  0  0  0  0
 14 19  2  0  0  0  0
 15 16  2  0  0  0  0
 15 18  1  0  0  0  0
 17 19  1  0  0  0  0
 18 19  1  0  0  0  0
M  END
>  <ID>
21

>  <Formula>
C10H13N5O3S

>  <FW>
283.3081

>  <Substance ID>
iss2_730

>  <Canc_iss2>
3.0

>  <SAL_iss2>
ND

>  <CAS_iss2>
789-61-7

>  <Molecular.Weight>
283.3

>  <FW_iss2>
283.3

>  <Parent.Atom.Count>
19.0

>  <Parent.Molecular.Weight>
283.3

>  <Rotatable.Bonds>
2.0

>  <Hydrogen.Bond.Acceptors>
8.0

>  <Polar.Surface.Area>
122.2

>  <Lipinski.Score>
0.0

>  <ALogP>
-0.37

>  <Hydrogen.Bond.Donors>
4.0

>  <ChemName_iss2>
beta-2'-Deoxythioguanosine

>  <SMILES_iss2>
S=C1c2ncn(c2\N=C(\N)N1)[C@@H]3O[C@@H](C(O)C3)CO

>  <Formula_iss2>
C10H13N5O3S

$$$$