iss2_114


 19 23  0  0  0  0  0  0  0  0999 V2000
    0.6489   -1.1144    0.0000 C   0  0  0  0  0  0  0  0  0  0  0  0
    1.2978   -0.0000    0.0000 C   0  0  0  0  0  0  0  0  0  0  0  0
    2.5955   -0.0000    0.0000 C   0  0  0  0  0  0  0  0  0  0  0  0
    1.2978   -2.2429    0.0000 C   0  0  0  0  0  0  0  0  0  0  0  0
    2.5955   -2.2429    0.0000 C   0  0  0  0  0  0  0  0  0  0  0  0
    3.2303   -1.1144    0.0000 C   0  0  0  0  0  0  0  0  0  0  0  0
    4.5281   -1.1144    0.0000 C   0  0  0  0  0  0  0  0  0  0  0  0
    5.1770   -2.2429    0.0000 C   0  0  0  0  0  0  0  0  0  0  0  0
    4.5281   -3.3573    0.0000 C   0  0  0  0  0  0  0  0  0  0  0  0
    3.2303   -3.3573    0.0000 C   0  0  0  0  0  0  0  0  0  0  0  0
    0.0000   -0.0000    0.0000 O   0  0  0  0  0  0  0  0  0  0  0  0
    2.5955   -4.4858    0.0000 Cl  0  0  0  0  0  0  0  0  0  0  0  0
    5.1770   -4.4858    0.0000 Cl  0  0  0  0  0  0  0  0  0  0  0  0
    6.4747   -2.2429    0.0000 Cl  0  0  0  0  0  0  0  0  0  0  0  0
    5.1770   -0.0000    0.0000 Cl  0  0  0  0  0  0  0  0  0  0  0  0
    4.5281   -2.6096    0.0000 C   0  0  0  0  0  0  0  0  0  0  0  0
    5.1770   -3.7381    0.0000 Cl  0  0  0  0  0  0  0  0  0  0  0  0
    5.8258   -2.6096    0.0000 Cl  0  0  0  0  0  0  0  0  0  0  0  0
    1.2978   -0.7476    0.0000 C   0  0  0  0  0  0  0  0  0  0  0  0
  1  2  1  0  0  0  0
  1  4  1  0  0  0  0
  1 11  1  0  0  0  0
  2  3  1  0  0  0  0
  2 11  1  0  0  0  0
  3  6  1  0  0  0  0
  3 19  1  0  0  0  0
  4  5  1  0  0  0  0
  4 19  1  0  0  0  0
  5  6  1  0  0  0  0
  5 10  1  0  0  0  0
  6  7  1  0  0  0  0
  7  8  1  0  0  0  0
  7 15  1  0  0  0  0
  7 16  1  0  0  0  0
  8  9  2  0  0  0  0
  8 14  1  0  0  0  0
  9 10  1  0  0  0  0
  9 13  1  0  0  0  0
 10 12  1  0  0  0  0
 10 16  1  0  0  0  0
 16 17  1  0  0  0  0
 16 18  1  0  0  0  0
M  END
>  <Substance ID> (iss2_114)
iss2_114

>  <ID_iss2> (iss2_114)
114.0

>  <Canc_iss2> (iss2_114)
1.0

>  <SAL_iss2> (iss2_114)
1

>  <CAS_iss2> (iss2_114)
72-20-8

$$$$
iss2_159


 18 20  0  0  0  0  0  0  0  0999 V2000
    1.1303   -3.2764    0.0000 C   0  0  0  0  0  0  0  0  0  0  0  0
    1.1303   -1.9601    0.0000 C   0  0  0  0  0  0  0  0  0  0  0  0
    2.2606   -1.3020    0.0000 C   0  0  0  0  0  0  0  0  0  0  0  0
    2.2606   -5.2365    0.0000 Cl  0  0  0  0  0  0  0  0  0  0  0  0
    0.0000   -3.9202    0.0000 Cl  0  0  0  0  0  0  0  0  0  0  0  0
    0.0000   -1.3020    0.0000 Cl  0  0  0  0  0  0  0  0  0  0  0  0
    2.2606   -0.0000    0.0000 Cl  0  0  0  0  0  0  0  0  0  0  0  0
    1.5166   -2.6182    0.0000 C   0  0  0  0  0  0  0  0  0  0  0  0
    2.2606   -3.9202    0.0000 C   0  0  0  0  0  0  0  0  0  0  0  0
    3.4051   -3.2764    0.0000 C   0  0  0  0  0  0  0  0  0  0  0  0
    3.4051   -1.9601    0.0000 C   0  0  0  0  0  0  0  0  0  0  0  0
    4.6499   -1.5595    0.0000 C   0  0  0  0  0  0  0  0  0  0  0  0
    5.4225   -2.6182    0.0000 C   0  0  0  0  0  0  0  0  0  0  0  0
    4.6499   -3.6770    0.0000 C   0  0  0  0  0  0  0  0  0  0  0  0
    6.7244   -2.6182    0.0000 Cl  0  0  0  0  0  0  0  0  0  0  0  0
    5.0505   -4.9217    0.0000 Cl  0  0  0  0  0  0  0  0  0  0  0  0
    0.3720   -1.9601    0.0000 Cl  0  0  0  0  0  0  0  0  0  0  0  0
    0.3720   -3.2764    0.0000 Cl  0  0  0  0  0  0  0  0  0  0  0  0
  1  2  2  0  0  0  0
  1  9  1  0  0  0  0
  1  5  1  0  0  0  0
  2  3  1  0  0  0  0
  2  6  1  0  0  0  0
  3 11  1  0  0  0  0
  3  7  1  0  0  0  0
  3  8  1  0  0  0  0
  4  9  1  0  0  0  0
  8  9  1  0  0  0  0
  8 17  1  0  0  0  0
  8 18  1  0  0  0  0
  9 10  1  0  0  0  0
 10 11  1  0  0  0  0
 10 14  1  0  0  0  0
 11 12  1  0  0  0  0
 12 13  1  0  0  0  0
 13 14  1  0  0  0  0
 13 15  1  0  0  0  0
 14 16  1  0  0  0  0
M  END
>  <Substance ID> (iss2_159)
iss2_159

>  <ID_iss2> (iss2_159)
159.0

>  <Canc_iss2> (iss2_159)
3.0

>  <SAL_iss2> (iss2_159)
1

>  <CAS_iss2> (iss2_159)
57-74-9

$$$$
iss2_160


 21 22  0  0  1  0  0  0  0  0999 V2000
    1.0629    3.4728    0.0000 Cl  0  0  0  0  0  0  0  0  0  0  0  0
    0.6454    1.7283    0.0000 C   0  0  0  0  0  0  0  0  0  0  0  0
    1.7336    0.7668    0.0000 C   0  0  0  0  0  0  0  0  0  0  0  0
    0.4413    1.2583    0.0000 C   0  0  0  0  0  0  0  0  0  0  0  0
   -0.7640    1.3505    0.0000 C   0  0  0  0  0  0  0  0  0  0  0  0
    1.6103    0.4629    0.0000 C   0  0  0  0  0  0  0  0  0  0  0  0
    1.5898   -0.4411    0.0000 C   0  0  0  0  0  0  0  0  0  0  0  0
    1.8672    1.6149    0.0000 Cl  0  0  0  0  0  0  0  0  0  0  0  0
   -0.8722    2.1213    0.0000 Cl  0  0  0  0  0  0  0  0  0  0  0  0
    0.1610   -0.3284    0.0000 C   0  0  0  0  0  0  0  0  0  0  0  0
   -1.8710    2.3020    0.0000 Cl  0  0  0  0  0  0  0  0  0  0  0  0
   -1.0969    0.3259    0.0000 C   0  0  0  0  0  0  0  0  0  0  0  0
    0.5822    0.1949    0.0000 O   0  0  0  0  0  0  0  0  0  0  0  0
    2.7861    0.5564    0.0000 O   0  0  0  0  0  0  0  0  0  0  0  0
    2.2367   -1.7592    0.0000 C   0  0  0  0  0  0  0  0  0  0  0  0
   -0.3788   -1.5456    0.0000 Cl  0  0  0  0  0  0  0  0  0  0  0  0
   -2.7861   -0.1045    0.0000 Cl  0  0  0  0  0  0  0  0  0  0  0  0
    2.7434   -1.9600    0.0000 O   0  0  0  0  0  0  0  0  0  0  0  0
    2.2555   -2.6950    0.0000 O   0  0  0  0  0  0  0  0  0  0  0  0
    2.3651   -0.3302    0.0000 H   0  0  0  0  0  0  0  0  0  0  0  0
    2.6062    0.3076    0.0000 H   0  0  0  0  0  0  0  0  0  0  0  0
  1  2  1  0  0  0  0
  2  3  1  0  0  0  0
  2  4  1  6  0  0  0
  2  5  1  0  0  0  0
  3  6  1  1  0  0  0
  3  7  1  6  0  0  0
  4  8  1  6  0  0  0
  4  9  1  6  0  0  0
  4 10  1  0  0  0  0
  5 11  1  1  0  0  0
  5 12  2  0  0  0  0
  6 13  2  0  0  0  0
  6 14  1  1  0  0  0
  7 10  1  6  0  0  0
  7 15  1  0  0  0  0
  7 20  1  6  0  0  0
 10 12  1  1  0  0  0
 10 16  1  1  0  0  0
 12 17  1  0  0  0  0
 14 21  1  1  0  0  0
 15 18  2  0  0  0  0
 15 19  1  6  0  0  0
M  END
>  <Substance ID> (iss2_160)
iss2_160

>  <ID_iss2> (iss2_160)
160.0

>  <Canc_iss2> (iss2_160)
3.0

>  <SAL_iss2> (iss2_160)
1

>  <CAS_iss2> (iss2_160)
115-28-6

$$$$
iss2_195


 17 19  0  0  0  0  0  0  0  0999 V2000
    2.2718   -3.9286    0.0000 C   0  0  0  0  0  0  0  0  0  0  0  0
    2.2718   -1.3179    0.0000 C   0  0  0  0  0  0  0  0  0  0  0  0
    3.0249   -2.6233    0.0000 C   0  0  0  0  0  0  0  0  0  0  0  0
    1.1296   -3.2760    0.0000 C   0  0  0  0  0  0  0  0  0  0  0  0
    1.1296   -1.9706    0.0000 C   0  0  0  0  0  0  0  0  0  0  0  0
    3.4015   -3.2760    0.0000 C   0  0  0  0  0  0  0  0  0  0  0  0
    3.4015   -1.9706    0.0000 C   0  0  0  0  0  0  0  0  0  0  0  0
    4.6441   -1.5689    0.0000 C   0  0  0  0  0  0  0  0  0  0  0  0
    5.4223   -2.6233    0.0000 C   0  0  0  0  0  0  0  0  0  0  0  0
    4.6441   -3.6776    0.0000 C   0  0  0  0  0  0  0  0  0  0  0  0
    2.2718   -5.2466    0.0000 Cl  0  0  0  0  0  0  0  0  0  0  0  0
    2.2718   -0.0000    0.0000 Cl  0  0  0  0  0  0  0  0  0  0  0  0
    4.1546   -1.9706    0.0000 Cl  0  0  0  0  0  0  0  0  0  0  0  0
    4.1546   -3.2760    0.0000 Cl  0  0  0  0  0  0  0  0  0  0  0  0
    0.0000   -3.9286    0.0000 Cl  0  0  0  0  0  0  0  0  0  0  0  0
    0.0000   -1.3179    0.0000 Cl  0  0  0  0  0  0  0  0  0  0  0  0
    5.0457   -4.9328    0.0000 Cl  0  0  0  0  0  0  0  0  0  0  0  0
  1  3  1  0  0  0  0
  1  4  1  0  0  0  0
  1  6  1  0  0  0  0
  1 11  1  0  0  0  0
  2  3  1  0  0  0  0
  2 12  1  0  0  0  0
  2  7  1  0  0  0  0
  2  5  1  0  0  0  0
  3 13  1  0  0  0  0
  3 14  1  0  0  0  0
  4  5  2  0  0  0  0
  4 15  1  0  0  0  0
  5 16  1  0  0  0  0
  6  7  1  0  0  0  0
  6 10  1  0  0  0  0
  7  8  1  0  0  0  0
  8  9  2  0  0  0  0
  9 10  1  0  0  0  0
 10 17  1  0  0  0  0
M  END
>  <Substance ID> (iss2_195)
iss2_195

>  <ID_iss2> (iss2_195)
195.0

>  <Canc_iss2> (iss2_195)
3.0

>  <SAL_iss2> (iss2_195)
1

>  <CAS_iss2> (iss2_195)
76-44-8

$$$$
iss2_344


 21 25  0  0  0  0  0  0  0  0999 V2000
   -0.0190    1.5477    0.0000 C   0  0  0  0  0  0  0  0  0  0  0  0
    0.0021   -0.0041    0.0000 C   0  0  0  0  0  0  0  0  0  0  0  0
    1.4657    1.9817    0.0000 C   0  0  0  0  0  0  0  0  0  0  0  0
   -0.0520    1.9433    0.0000 C   0  0  0  0  0  0  0  0  0  0  0  0
   -1.1587    2.3551    0.0000 Cl  0  0  0  0  0  0  0  0  0  0  0  0
    1.4980   -0.3975    0.0000 C   0  0  0  0  0  0  0  0  0  0  0  0
   -0.0199   -0.4168    0.0000 C   0  0  0  0  0  0  0  0  0  0  0  0
   -1.1155   -0.8295    0.0000 Cl  0  0  0  0  0  0  0  0  0  0  0  0
    1.4697    1.5694    0.0000 C   0  0  0  0  0  0  0  0  0  0  0  0
    2.1899    0.8056    0.0000 C   0  0  0  0  0  0  0  0  0  0  0  0
    1.9001    3.6697    0.0000 Cl  0  0  0  0  0  0  0  0  0  0  0  0
   -0.7986    0.7493    0.0000 C   0  0  0  0  0  0  0  0  0  0  0  0
   -0.5597    3.6045    0.0000 Cl  0  0  0  0  0  0  0  0  0  0  0  0
    1.4910   -0.0016    0.0000 C   0  0  0  0  0  0  0  0  0  0  0  0
    1.9779   -2.0679    0.0000 Cl  0  0  0  0  0  0  0  0  0  0  0  0
   -0.4656   -2.1013    0.0000 Cl  0  0  0  0  0  0  0  0  0  0  0  0
    2.5870    2.4134    0.0000 Cl  0  0  0  0  0  0  0  0  0  0  0  0
    1.8581    0.8108    0.0000 Cl  0  0  0  0  0  0  0  0  0  0  0  0
    3.9622    0.8287    0.0000 Cl  0  0  0  0  0  0  0  0  0  0  0  0
   -1.7223    0.7325    0.0000 O   0  0  0  0  0  0  0  0  0  0  0  0
    2.6309   -0.8274    0.0000 Cl  0  0  0  0  0  0  0  0  0  0  0  0
  1  2  1  0  0  0  0
  1  3  1  0  0  0  0
  1  4  1  0  0  0  0
  1  5  1  0  0  0  0
  2  6  1  0  0  0  0
  2  7  1  0  0  0  0
  2  8  1  0  0  0  0
  3  9  1  0  0  0  0
  3 10  1  0  0  0  0
  3 11  1  0  0  0  0
  4 12  1  0  0  0  0
  4 13  1  0  0  0  0
  4  9  1  0  0  0  0
  6 14  1  0  0  0  0
  6 15  1  0  0  0  0
  6 10  1  0  0  0  0
  7 16  1  0  0  0  0
  7 12  1  0  0  0  0
  7 14  1  0  0  0  0
  9 17  1  0  0  0  0
  9 14  1  0  0  0  0
 10 18  1  0  0  0  0
 10 19  1  0  0  0  0
 12 20  2  0  0  0  0
 14 21  1  0  0  0  0
M  END
>  <Substance ID> (iss2_344)
iss2_344

>  <ID_iss2> (iss2_344)
344.0

>  <Canc_iss2> (iss2_344)
3.0

>  <SAL_iss2> (iss2_344)
1

>  <CAS_iss2> (iss2_344)
143-50-0

$$$$
iss2_351


 22 26  0  0  1  0  0  0  0  0999 V2000
    3.8556   -2.0936    0.0000 C   0  0  0  0  0  0  0  0  0  0  0  0
    4.5433   -1.0928    0.0000 C   0  0  0  0  0  0  0  0  0  0  0  0
    2.0690   -2.0875    0.0000 C   0  0  0  0  0  0  0  0  0  0  0  0
    3.8741   -3.7267    0.0000 C   0  0  0  0  0  0  0  0  0  0  0  0
    4.9853   -2.0813    0.0000 Cl  0  0  0  0  0  0  0  0  0  0  0  0
    2.5909   -1.0928    0.0000 C   0  0  0  0  0  0  0  0  0  0  0  0
    4.5371   -2.8795    0.0000 C   0  0  0  0  0  0  0  0  0  0  0  0
    4.9976   -0.4543    0.0000 Cl  0  0  0  0  0  0  0  0  0  0  0  0
    2.0690   -3.7206    0.0000 C   0  0  0  0  0  0  0  0  0  0  0  0
    0.9332   -0.7245    0.0000 C   0  0  0  0  0  0  0  0  0  0  0  0
    0.6631   -2.0936    0.0000 Cl  0  0  0  0  0  0  0  0  0  0  0  0
    5.2002   -4.2670    0.0000 C   0  0  0  0  0  0  0  0  0  0  0  0
    3.2969   -4.5985    0.0000 Cl  0  0  0  0  0  0  0  0  0  0  0  0
    2.5909   -2.8856    0.0000 C   0  0  0  0  0  0  0  0  0  0  0  0
    3.1005   -0.3929    0.0000 Cl  0  0  0  0  0  0  0  0  0  0  0  0
    5.5133   -2.6339    0.0000 Cl  0  0  0  0  0  0  0  0  0  0  0  0
    1.6577   -4.4635    0.0000 Cl  0  0  0  0  0  0  0  0  0  0  0  0
    0.9332   -0.0000    0.0000 Cl  0  0  0  0  0  0  0  0  0  0  0  0
    0.0000   -0.7183    0.0000 Cl  0  0  0  0  0  0  0  0  0  0  0  0
    6.1396   -4.2609    0.0000 Cl  0  0  0  0  0  0  0  0  0  0  0  0
    5.2002   -5.1143    0.0000 Cl  0  0  0  0  0  0  0  0  0  0  0  0
    1.5533   -2.6155    0.0000 Cl  0  0  0  0  0  0  0  0  0  0  0  0
  1  2  1  0  0  0  0
  1  3  1  0  0  0  0
  1  4  1  0  0  0  0
  1  5  1  1  0  0  0
  2  6  1  0  0  0  0
  2  7  1  0  0  0  0
  2  8  1  6  0  0  0
  3  9  1  0  0  0  0
  3 10  1  0  0  0  0
  3 11  1  1  0  0  0
  4 12  1  0  0  0  0
  4 13  1  1  0  0  0
  4  9  1  0  0  0  0
  6 14  1  0  0  0  0
  6 15  1  6  0  0  0
  6 10  1  0  0  0  0
  7 16  1  6  0  0  0
  7 12  1  0  0  0  0
  7 14  1  0  0  0  0
  9 17  1  1  0  0  0
  9 14  1  0  0  0  0
 10 18  1  0  0  0  0
 10 19  1  0  0  0  0
 12 20  1  0  0  0  0
 12 21  1  0  0  0  0
 14 22  1  6  0  0  0
M  END
>  <Substance ID> (iss2_351)
iss2_351

>  <ID_iss2> (iss2_351)
351.0

>  <Canc_iss2> (iss2_351)
3.0

>  <SAL_iss2> (iss2_351)
ND

>  <CAS_iss2> (iss2_351)
39801-14-4

$$$$
iss2_482


 22 26  0  0  0  0  0  0  0  0999 V2000
   -0.0190    1.5468    0.0000 C   0  0  0  0  0  0  0  0  0  0  0  0
    0.0021   -0.0041    0.0000 C   0  0  0  0  0  0  0  0  0  0  0  0
    1.4657    1.9813    0.0000 C   0  0  0  0  0  0  0  0  0  0  0  0
   -0.0535    1.9538    0.0000 C   0  0  0  0  0  0  0  0  0  0  0  0
   -1.1505    2.3485    0.0000 Cl  0  0  0  0  0  0  0  0  0  0  0  0
    1.4980   -0.3980    0.0000 C   0  0  0  0  0  0  0  0  0  0  0  0
   -0.0212   -0.4282    0.0000 C   0  0  0  0  0  0  0  0  0  0  0  0
   -1.1074   -0.8234    0.0000 Cl  0  0  0  0  0  0  0  0  0  0  0  0
    1.4654    1.5685    0.0000 C   0  0  0  0  0  0  0  0  0  0  0  0
    2.1907    0.8052    0.0000 C   0  0  0  0  0  0  0  0  0  0  0  0
    1.9004    3.6695    0.0000 Cl  0  0  0  0  0  0  0  0  0  0  0  0
   -0.8186    0.7486    0.0000 C   0  0  0  0  0  0  0  0  0  0  0  0
   -0.5522    3.6208    0.0000 Cl  0  0  0  0  0  0  0  0  0  0  0  0
    1.4867   -0.0017    0.0000 C   0  0  0  0  0  0  0  0  0  0  0  0
    1.9782   -2.0686    0.0000 Cl  0  0  0  0  0  0  0  0  0  0  0  0
   -0.4574   -2.1181    0.0000 Cl  0  0  0  0  0  0  0  0  0  0  0  0
    2.5819    2.4165    0.0000 Cl  0  0  0  0  0  0  0  0  0  0  0  0
    1.8617    0.8105    0.0000 Cl  0  0  0  0  0  0  0  0  0  0  0  0
    3.9626    0.8282    0.0000 Cl  0  0  0  0  0  0  0  0  0  0  0  0
   -0.6388    0.7411    0.0000 Cl  0  0  0  0  0  0  0  0  0  0  0  0
   -2.5551    0.7286    0.0000 Cl  0  0  0  0  0  0  0  0  0  0  0  0
    2.6259   -0.8316    0.0000 Cl  0  0  0  0  0  0  0  0  0  0  0  0
  1  2  1  0  0  0  0
  1  3  1  0  0  0  0
  1  4  1  0  0  0  0
  1  5  1  0  0  0  0
  2  6  1  0  0  0  0
  2  7  1  0  0  0  0
  2  8  1  0  0  0  0
  3  9  1  0  0  0  0
  3 10  1  0  0  0  0
  3 11  1  0  0  0  0
  4 12  1  0  0  0  0
  4 13  1  0  0  0  0
  4  9  1  0  0  0  0
  6 14  1  0  0  0  0
  6 15  1  0  0  0  0
  6 10  1  0  0  0  0
  7 16  1  0  0  0  0
  7 12  1  0  0  0  0
  7 14  1  0  0  0  0
  9 17  1  0  0  0  0
  9 14  1  0  0  0  0
 10 18  1  0  0  0  0
 10 19  1  0  0  0  0
 12 20  1  0  0  0  0
 12 21  1  0  0  0  0
 14 22  1  0  0  0  0
M  END
>  <Substance ID> (iss2_482)
iss2_482

>  <ID_iss2> (iss2_482)
482.0

>  <Canc_iss2> (iss2_482)
3.0

>  <SAL_iss2> (iss2_482)
1

>  <CAS_iss2> (iss2_482)
2385-85-5

$$$$
iss2_548


 17 18  0  0  1  0  0  0  0  0999 V2000
    4.2761   -1.3302    0.0000 Cl  0  0  0  0  0  0  0  0  0  0  0  0
    3.0592   -1.8852    0.0000 C   0  0  0  0  0  0  0  0  0  0  0  0
    3.2472   -3.0738    0.0000 C   0  0  0  0  0  0  0  0  0  0  0  0
    2.0803   -3.5288    0.0000 C   0  0  0  0  0  0  0  0  0  0  0  0
    1.6195   -3.6469    0.0000 Cl  0  0  0  0  0  0  0  0  0  0  0  0
    2.0543   -4.8069    0.0000 Cl  0  0  0  0  0  0  0  0  0  0  0  0
    1.3777   -2.5585    0.0000 C   0  0  0  0  0  0  0  0  0  0  0  0
    2.0515   -2.0525    0.0000 C   0  0  0  0  0  0  0  0  0  0  0  0
    2.1797   -2.9126    0.0000 Cl  0  0  0  0  0  0  0  0  0  0  0  0
    0.0000   -2.9012    0.0000 Cl  0  0  0  0  0  0  0  0  0  0  0  0
    1.5074   -1.6594    0.0000 C   0  0  0  0  0  0  0  0  0  0  0  0
    0.7404   -1.3532    0.0000 C   0  0  0  0  0  0  0  0  0  0  0  0
    2.5375   -1.1115    0.0000 C   0  0  0  0  0  0  0  0  0  0  0  0
    3.4090   -0.6276    0.0000 C   0  0  0  0  0  0  0  0  0  0  0  0
    2.3173   -0.0000    0.0000 C   0  0  0  0  0  0  0  0  0  0  0  0
    3.5027   -3.9146    0.0000 Cl  0  0  0  0  0  0  0  0  0  0  0  0
    4.1849   -3.4183    0.0000 Cl  0  0  0  0  0  0  0  0  0  0  0  0
  2  1  1  6  0  0  0
  2  3  1  0  0  0  0
  2  8  1  0  0  0  0
  2 13  1  0  0  0  0
  3  4  1  0  0  0  0
  3 16  1  0  0  0  0
  3 17  1  0  0  0  0
  4  5  1  0  0  0  0
  4  6  1  0  0  0  0
  4  7  1  0  0  0  0
  7  8  1  0  0  0  0
  7 10  1  1  0  0  0
  7 11  1  0  0  0  0
  8  9  1  0  0  0  0
 11 12  2  0  0  0  0
 11 13  1  0  0  0  0
 13 14  1  0  0  0  0
 13 15  1  0  0  0  0
M  END
>  <Substance ID> (iss2_548)
iss2_548

>  <ID_iss2> (iss2_548)
548.0

>  <Canc_iss2> (iss2_548)
3.0

>  <SAL_iss2> (iss2_548)
ND

>  <CAS_iss2> (iss2_548)
8001-50-1

$$$$
iss2_716


 23 25  0  0  1  0  0  0  0  0999 V2000
    4.4647   -3.2766    0.0000 C   0  0  0  0  0  0  0  0  0  0  0  0
    2.9514   -3.2766    0.0000 C   0  0  0  0  0  0  0  0  0  0  0  0
    2.1886   -1.9634    0.0000 C   0  0  0  0  0  0  0  0  0  0  0  0
    3.3266   -1.3131    0.0000 C   0  0  0  0  0  0  0  0  0  0  0  0
    4.4647   -1.9634    0.0000 C   0  0  0  0  0  0  0  0  0  0  0  0
    2.1886   -3.2766    0.0000 C   0  0  0  0  0  0  0  0  0  0  0  0
    3.3266   -3.9394    0.0000 C   0  0  0  0  0  0  0  0  0  0  0  0
    1.3131   -6.1030    0.0000 S   0  0  0  0  0  0  0  0  0  0  0  0
    0.5753   -5.0149    0.0000 O   0  0  0  0  0  0  0  0  0  0  0  0
    2.6263   -6.2030    0.0000 O   0  0  0  0  0  0  0  0  0  0  0  0
    3.5142   -5.2400    0.0000 C   0  0  0  0  0  0  0  0  0  0  0  0
    0.9630   -3.7643    0.0000 C   0  0  0  0  0  0  0  0  0  0  0  0
    0.6628   -7.2410    0.0000 O   0  0  0  0  0  0  0  0  0  0  0  0
    5.6027   -3.9394    0.0000 Cl  0  0  0  0  0  0  0  0  0  0  0  0
    1.0505   -1.3131    0.0000 Cl  0  0  0  0  0  0  0  0  0  0  0  0
    1.8134   -3.9394    0.0000 Cl  0  0  0  0  0  0  0  0  0  0  0  0
    2.9514   -4.5897    0.0000 Cl  0  0  0  0  0  0  0  0  0  0  0  0
    5.6027   -1.3131    0.0000 Cl  0  0  0  0  0  0  0  0  0  0  0  0
    3.3266   -0.0000    0.0000 Cl  0  0  0  0  0  0  0  0  0  0  0  0
    1.1756   -2.4387    0.0000 H   0  0  0  0  0  0  0  0  0  0  0  0
    4.5522   -4.3896    0.0000 H   0  0  0  0  0  0  0  0  0  0  0  0
    4.7773   -5.6277    0.0000 H   0  0  0  0  0  0  0  0  0  0  0  0
    0.0000   -2.8639    0.0000 H   0  0  0  0  0  0  0  0  0  0  0  0
  1  2  1  6  0  0  0
  1  5  1  1  0  0  0
  1  7  1  0  0  0  0
  1 14  1  0  0  0  0
  2  3  1  1  0  0  0
  2 16  1  0  0  0  0
  2 17  1  6  0  0  0
  3  4  1  1  0  0  0
  3  6  1  0  0  0  0
  3 15  1  0  0  0  0
  4  5  2  0  0  0  0
  4 19  1  1  0  0  0
  5 18  1  1  0  0  0
  6  7  1  0  0  0  0
  6 12  1  6  0  0  0
  6 20  1  1  0  0  0
  7 11  1  1  0  0  0
  7 21  1  6  0  0  0
  8  9  1  0  0  0  0
  8 10  1  1  0  0  0
  8 13  2  0  0  0  0
  9 12  1  0  0  0  0
 10 11  1  0  0  0  0
 11 22  1  1  0  0  0
 12 23  1  6  0  0  0
M  END
>  <Substance ID> (iss2_716)
iss2_716

>  <ID_iss2> (iss2_716)
716.0

>  <Canc_iss2> (iss2_716)
1.0

>  <SAL_iss2> (iss2_716)
1

>  <CAS_iss2> (iss2_716)
115-29-7

$$$$
iss2_727


 18 19  0  0  0  0  0  0  0  0999 V2000
    3.3986   -0.0000    0.0000 Cl  0  0  0  0  0  0  0  0  0  0  0  0
    3.3986   -1.3003    0.0000 C   0  0  0  0  0  0  0  0  0  0  0  0
    4.5364   -1.9653    0.0000 C   0  0  0  0  0  0  0  0  0  0  0  0
    5.6594   -1.3003    0.0000 Cl  0  0  0  0  0  0  0  0  0  0  0  0
    4.5364   -3.2656    0.0000 C   0  0  0  0  0  0  0  0  0  0  0  0
    3.3986   -3.9157    0.0000 C   0  0  0  0  0  0  0  0  0  0  0  0
    2.2608   -1.9653    0.0000 C   0  0  0  0  0  0  0  0  0  0  0  0
    2.2608   -3.2656    0.0000 C   0  0  0  0  0  0  0  0  0  0  0  0
    0.9605   -3.2656    0.0000 Cl  0  0  0  0  0  0  0  0  0  0  0  0
    1.6106   -4.4034    0.0000 Cl  0  0  0  0  0  0  0  0  0  0  0  0
    3.7828   -1.9653    0.0000 C   0  0  0  0  0  0  0  0  0  0  0  0
    4.9058   -1.3003    0.0000 C   0  0  0  0  0  0  0  0  0  0  0  0
    6.0435   -1.9653    0.0000 Cl  0  0  0  0  0  0  0  0  0  0  0  0
    4.9058   -0.0000    0.0000 Cl  0  0  0  0  0  0  0  0  0  0  0  0
    3.7828   -0.6502    0.0000 C   0  0  0  0  0  0  0  0  0  0  0  0
    2.6450   -0.0000    0.0000 Cl  0  0  0  0  0  0  0  0  0  0  0  0
    1.1378   -1.3003    0.0000 C   0  0  0  0  0  0  0  0  0  0  0  0
    0.0000   -1.9653    0.0000 Cl  0  0  0  0  0  0  0  0  0  0  0  0
  1  2  1  0  0  0  0
  2  3  1  0  0  0  0
  2  7  1  0  0  0  0
  3  4  1  0  0  0  0
  3  5  1  0  0  0  0
  5  6  1  0  0  0  0
  5 11  1  0  0  0  0
  6  8  1  0  0  0  0
  7  8  1  0  0  0  0
  7 11  1  0  0  0  0
  7 17  1  0  0  0  0
  8  9  1  0  0  0  0
  8 10  1  0  0  0  0
 11 12  1  0  0  0  0
 11 15  1  0  0  0  0
 12 13  1  0  0  0  0
 12 14  1  0  0  0  0
 15 16  1  0  0  0  0
 17 18  1  0  0  0  0
M  END
>  <Substance ID> (iss2_727)
iss2_727

>  <ID_iss2> (iss2_727)
727.0

>  <Canc_iss2> (iss2_727)
3.0

>  <SAL_iss2> (iss2_727)
3

>  <CAS_iss2> (iss2_727)
8001-35-2

$$$$
iss2_728


 24 29  0  0  1  0  0  0  0  0999 V2000
    2.8556   -3.0348    0.0000 C   0  0  0  0  0  0  0  0  0  0  0  0
    2.2208   -3.4843    0.0000 C   0  0  0  0  0  0  0  0  0  0  0  0
    2.0165   -2.2566    0.0000 C   0  0  0  0  0  0  0  0  0  0  0  0
    4.2914   -2.5223    0.0000 C   0  0  0  0  0  0  0  0  0  0  0  0
    5.4633   -1.8751    0.0000 C   0  0  0  0  0  0  0  0  0  0  0  0
    5.6500   -1.3436    0.0000 C   0  0  0  0  0  0  0  0  0  0  0  0
    4.5643   -1.7041    0.0000 C   0  0  0  0  0  0  0  0  0  0  0  0
    6.4130   -2.2601    0.0000 O   0  0  0  0  0  0  0  0  0  0  0  0
    2.2105   -1.1802    0.0000 Cl  0  0  0  0  0  0  0  0  0  0  0  0
    1.3249   -2.3337    0.0000 Cl  0  0  0  0  0  0  0  0  0  0  0  0
    0.9526   -4.4213    0.0000 Cl  0  0  0  0  0  0  0  0  0  0  0  0
    2.7465   -3.9667    0.0000 Cl  0  0  0  0  0  0  0  0  0  0  0  0
    4.1599   -2.9122    0.0000 C   0  0  0  0  0  0  0  0  0  0  0  0
    0.0000   -2.0179    0.0000 Cl  0  0  0  0  0  0  0  0  0  0  0  0
    1.2052   -0.0000    0.0000 Cl  0  0  0  0  0  0  0  0  0  0  0  0
    3.4450   -1.1313    0.0000 C   0  0  0  0  0  0  0  0  0  0  0  0
    3.2528   -1.6507    0.0000 C   0  0  0  0  0  0  0  0  0  0  0  0
    2.4022   -1.7407    0.0000 C   0  0  0  0  0  0  0  0  0  0  0  0
    1.3875   -1.5094    0.0000 C   0  0  0  0  0  0  0  0  0  0  0  0
    2.7818   -4.0678    0.0000 H   0  0  0  0  0  0  0  0  0  0  0  0
    4.2477   -3.2301    0.0000 H   0  0  0  0  0  0  0  0  0  0  0  0
    5.7625   -1.4763    0.0000 H   0  0  0  0  0  0  0  0  0  0  0  0
    4.6797   -1.6524    0.0000 H   0  0  0  0  0  0  0  0  0  0  0  0
    3.3325   -0.9696    0.0000 H   0  0  0  0  0  0  0  0  0  0  0  0
  1  2  1  1  0  0  0
  1 12  1  6  0  0  0
  1 13  1  0  0  0  0
  1 18  1  0  0  0  0
  2  3  1  0  0  0  0
  2 11  1  0  0  0  0
  2 20  1  1  0  0  0
  3 10  1  1  0  0  0
  3 17  1  0  0  0  0
  3 19  1  6  0  0  0
  4  5  1  0  0  0  0
  4 13  1  6  0  0  0
  4 17  1  0  0  0  0
  4 21  1  1  0  0  0
  5  6  1  6  0  0  0
  5  8  1  6  0  0  0
  5 22  1  1  0  0  0
  6  7  1  6  0  0  0
  6  8  1  0  0  0  0
  7 13  1  0  0  0  0
  7 16  1  0  0  0  0
  7 23  1  6  0  0  0
  9 18  1  1  0  0  0
 14 19  1  0  0  0  0
 15 19  1  0  0  0  0
 16 17  1  1  0  0  0
 16 18  1  0  0  0  0
 17 24  1  1  0  0  0
 18 19  1  1  0  0  0
M  END
>  <Substance ID> (iss2_728)
iss2_728

>  <ID_iss2> (iss2_728)
728.0

>  <Canc_iss2> (iss2_728)
1.0

>  <SAL_iss2> (iss2_728)
3

>  <CAS_iss2> (iss2_728)
13366-73-9

$$$$
iss2_748


 18 21  0  0  0  0  0  0  0  0999 V2000
    3.3667   -1.2988    0.0000 C   0  0  0  0  0  0  0  0  0  0  0  0
    3.3667   -3.8836    0.0000 C   0  0  0  0  0  0  0  0  0  0  0  0
    2.6101   -2.5849    0.0000 C   0  0  0  0  0  0  0  0  0  0  0  0
    4.4889   -1.9418    0.0000 C   0  0  0  0  0  0  0  0  0  0  0  0
    4.4889   -3.2280    0.0000 C   0  0  0  0  0  0  0  0  0  0  0  0
    2.2444   -1.9418    0.0000 C   0  0  0  0  0  0  0  0  0  0  0  0
    2.2444   -3.2280    0.0000 C   0  0  0  0  0  0  0  0  0  0  0  0
    1.1222   -1.2988    0.0000 C   0  0  0  0  0  0  0  0  0  0  0  0
    1.1222   -3.8836    0.0000 C   0  0  0  0  0  0  0  0  0  0  0  0
    0.0000   -1.9418    0.0000 C   0  0  0  0  0  0  0  0  0  0  0  0
    0.0000   -3.2280    0.0000 C   0  0  0  0  0  0  0  0  0  0  0  0
    0.3783   -2.5849    0.0000 C   0  0  0  0  0  0  0  0  0  0  0  0
    3.3667   -5.1698    0.0000 Cl  0  0  0  0  0  0  0  0  0  0  0  0
    3.3667   -0.0000    0.0000 Cl  0  0  0  0  0  0  0  0  0  0  0  0
    1.5005   -3.2280    0.0000 Cl  0  0  0  0  0  0  0  0  0  0  0  0
    1.5005   -1.9418    0.0000 Cl  0  0  0  0  0  0  0  0  0  0  0  0
    5.5985   -3.8836    0.0000 Cl  0  0  0  0  0  0  0  0  0  0  0  0
    5.5985   -1.2988    0.0000 Cl  0  0  0  0  0  0  0  0  0  0  0  0
  1  3  1  0  0  0  0
  1  4  1  0  0  0  0
  1  6  1  0  0  0  0
  1 14  1  0  0  0  0
  2  3  1  0  0  0  0
  2 13  1  0  0  0  0
  2  7  1  0  0  0  0
  2  5  1  0  0  0  0
  3 15  1  0  0  0  0
  3 16  1  0  0  0  0
  4  5  2  0  0  0  0
  4 18  1  0  0  0  0
  5 17  1  0  0  0  0
  6  7  1  0  0  0  0
  6  8  1  0  0  0  0
  7  9  1  0  0  0  0
  8 10  1  0  0  0  0
  8 12  1  0  0  0  0
  9 12  1  0  0  0  0
  9 11  1  0  0  0  0
 10 11  2  0  0  0  0
M  END
>  <Substance ID> (iss2_748)
iss2_748

>  <ID_iss2> (iss2_748)
748.0

>  <Canc_iss2> (iss2_748)
3.0

>  <SAL_iss2> (iss2_748)
1

>  <CAS_iss2> (iss2_748)
309-00-2

$$$$
iss2_857


 19 23  0  0  1  0  0  0  0  0999 V2000
    1.2310   -2.6401    0.0000 C   0  0  0  0  0  0  0  0  0  0  0  0
    0.0000   -2.6401    0.0000 O   0  0  0  0  0  0  0  0  0  0  0  0
    0.6007   -3.6931    0.0000 C   0  0  0  0  0  0  0  0  0  0  0  0
    2.2470   -2.9219    0.0000 C   0  0  0  0  0  0  0  0  0  0  0  0
    3.4113   -2.7068    0.0000 C   0  0  0  0  0  0  0  0  0  0  0  0
    1.7946   -3.9008    0.0000 C   0  0  0  0  0  0  0  0  0  0  0  0
    2.1061   -5.0280    0.0000 C   0  0  0  0  0  0  0  0  0  0  0  0
    3.3001   -3.6931    0.0000 C   0  0  0  0  0  0  0  0  0  0  0  0
    4.8500   -2.0023    0.0000 C   0  0  0  0  0  0  0  0  0  0  0  0
    4.3902   -3.1295    0.0000 C   0  0  0  0  0  0  0  0  0  0  0  0
    5.6954   -3.7599    0.0000 C   0  0  0  0  0  0  0  0  0  0  0  0
    6.3258   -2.7068    0.0000 C   0  0  0  0  0  0  0  0  0  0  0  0
    7.4159   -2.4250    0.0000 Cl  0  0  0  0  0  0  0  0  0  0  0  0
    6.1478   -4.8203    0.0000 Cl  0  0  0  0  0  0  0  0  0  0  0  0
    3.9749   -4.3235    0.0000 Cl  0  0  0  0  0  0  0  0  0  0  0  0
    4.3902   -0.7787    0.0000 C   0  0  0  0  0  0  0  0  0  0  0  0
    5.1318   -0.0000    0.0000 Cl  0  0  0  0  0  0  0  0  0  0  0  0
    3.5522   -0.0742    0.0000 Cl  0  0  0  0  0  0  0  0  0  0  0  0
    5.6583   -1.1643    0.0000 Cl  0  0  0  0  0  0  0  0  0  0  0  0
  1  2  1  0  0  0  0
  1  3  1  0  0  0  0
  1  4  1  0  0  0  0
  2  3  1  0  0  0  0
  3  6  1  0  0  0  0
  4  5  1  0  0  0  0
  4  7  1  0  0  0  0
  5  9  1  0  0  0  0
  5  8  1  0  0  0  0
  6  7  1  0  0  0  0
  6  8  1  0  0  0  0
  8 10  1  0  0  0  0
  9 12  1  0  0  0  0
  9 16  1  0  0  0  0
  9 19  1  6  0  0  0
 10 11  1  0  0  0  0
 10 16  1  0  0  0  0
 10 15  1  1  0  0  0
 11 12  2  0  0  0  0
 11 14  1  0  0  0  0
 12 13  1  0  0  0  0
 16 17  1  0  0  0  0
 16 18  1  0  0  0  0
M  END
>  <Substance ID> (iss2_857)
iss2_857

>  <ID_iss2> (iss2_857)
857.0

>  <Canc_iss2> (iss2_857)
3.0

>  <SAL_iss2> (iss2_857)
1

>  <CAS_iss2> (iss2_857)
60-57-1

$$$$
iss2_200


 12 12  0  0  0  0  0  0  0  0999 V2000
    2.2934   -4.0019    0.0000 C   0  0  0  0  0  0  0  0  0  0  0  0
    1.1390   -3.3247    0.0000 C   0  0  0  0  0  0  0  0  0  0  0  0
    1.1390   -2.0010    0.0000 C   0  0  0  0  0  0  0  0  0  0  0  0
    2.2934   -1.3391    0.0000 C   0  0  0  0  0  0  0  0  0  0  0  0
    3.4478   -2.0010    0.0000 C   0  0  0  0  0  0  0  0  0  0  0  0
    3.4478   -3.3247    0.0000 C   0  0  0  0  0  0  0  0  0  0  0  0
    4.6022   -4.0019    0.0000 Cl  0  0  0  0  0  0  0  0  0  0  0  0
    4.6022   -1.3391    0.0000 Cl  0  0  0  0  0  0  0  0  0  0  0  0
    2.2934   -0.0000    0.0000 Cl  0  0  0  0  0  0  0  0  0  0  0  0
    0.0000   -1.3391    0.0000 Cl  0  0  0  0  0  0  0  0  0  0  0  0
    0.0000   -4.0019    0.0000 Cl  0  0  0  0  0  0  0  0  0  0  0  0
    2.2934   -5.3257    0.0000 Cl  0  0  0  0  0  0  0  0  0  0  0  0
  1  2  1  0  0  0  0
  1  6  1  0  0  0  0
  1 12  1  0  0  0  0
  2  3  1  0  0  0  0
  2 11  1  0  0  0  0
  3  4  1  0  0  0  0
  3 10  1  0  0  0  0
  4  5  1  0  0  0  0
  4  9  1  0  0  0  0
  5  6  1  0  0  0  0
  5  8  1  0  0  0  0
  6  7  1  0  0  0  0
M  END
>  <Substance ID> (iss2_200)
iss2_200

>  <Molecular.Weight> (iss2_200)
290.8

>  <FW_iss2> (iss2_200)
290.8

>  <Parent.Atom.Count> (iss2_200)
12.0

>  <Parent.Molecular.Weight> (iss2_200)
290.8

>  <Rotatable.Bonds> (iss2_200)
0.0

>  <Hydrogen.Bond.Acceptors> (iss2_200)
0.0

>  <Polar.Surface.Area> (iss2_200)
0.0

>  <Lipinski.Score> (iss2_200)
0.0

>  <Canc_iss2> (iss2_200)
3.0

>  <ALogP> (iss2_200)
3.64

>  <Hydrogen.Bond.Donors> (iss2_200)
0.0

>  <ChemName_iss2> (iss2_200)
Lindane

>  <SMILES_iss2> (iss2_200)
Cl[C@H]1[C@H](Cl)[C@@H](Cl)[C@@H](Cl)[C@H](Cl)[C@H]1Cl

>  <SAL_iss2> (iss2_200)
1

>  <CAS_iss2> (iss2_200)
58-89-9

>  <Formula_iss2> (iss2_200)
C6H6Cl6

$$$$
iss2_406


 12 12  0  0  1  0  0  0  0  0999 V2000
    1.1610   -1.9960    0.0000 C   0  0  0  0  0  0  0  0  0  0  0  0
    2.3090   -1.3306    0.0000 C   0  0  0  0  0  0  0  0  0  0  0  0
    3.4570   -1.9960    0.0000 C   0  0  0  0  0  0  0  0  0  0  0  0
    3.4570   -3.3266    0.0000 C   0  0  0  0  0  0  0  0  0  0  0  0
    2.3090   -3.9919    0.0000 C   0  0  0  0  0  0  0  0  0  0  0  0
    1.1610   -3.3266    0.0000 C   0  0  0  0  0  0  0  0  0  0  0  0
    0.0000   -3.9919    0.0000 Cl  0  0  0  0  0  0  0  0  0  0  0  0
    2.3090   -5.3225    0.0000 Cl  0  0  0  0  0  0  0  0  0  0  0  0
    4.6050   -1.3306    0.0000 Cl  0  0  0  0  0  0  0  0  0  0  0  0
    0.0000   -1.3306    0.0000 Cl  0  0  0  0  0  0  0  0  0  0  0  0
    2.3090   -0.0000    0.0000 Cl  0  0  0  0  0  0  0  0  0  0  0  0
    4.6050   -3.9919    0.0000 Cl  0  0  0  0  0  0  0  0  0  0  0  0
  1  2  1  0  0  0  0
  1  6  1  0  0  0  0
  1 10  1  6  0  0  0
  2  3  1  0  0  0  0
  2 11  1  6  0  0  0
  3  4  1  0  0  0  0
  3  9  1  1  0  0  0
  4  5  1  0  0  0  0
  4 12  1  6  0  0  0
  5  6  1  0  0  0  0
  5  8  1  1  0  0  0
  6  7  1  1  0  0  0
M  END
>  <Substance ID> (iss2_406)
iss2_406

>  <Molecular.Weight> (iss2_406)
290.8

>  <FW_iss2> (iss2_406)
290.8

>  <Parent.Atom.Count> (iss2_406)
12.0

>  <Parent.Molecular.Weight> (iss2_406)
290.8

>  <Rotatable.Bonds> (iss2_406)
0.0

>  <Hydrogen.Bond.Acceptors> (iss2_406)
0.0

>  <Polar.Surface.Area> (iss2_406)
0.0

>  <Lipinski.Score> (iss2_406)
0.0

>  <Canc_iss2> (iss2_406)
3.0

>  <ALogP> (iss2_406)
3.64

>  <Hydrogen.Bond.Donors> (iss2_406)
0.0

>  <ChemName_iss2> (iss2_406)
alpha-1,2,3,4,5,6-Hexachlorocyclohexane

>  <SMILES_iss2> (iss2_406)
Cl[C@H]1[C@@H](Cl)[C@H](Cl)[C@H](Cl)[C@@H](Cl)[C@@H]1Cl

>  <SAL_iss2> (iss2_406)
1

>  <CAS_iss2> (iss2_406)
319-84-6

>  <Formula_iss2> (iss2_406)
C6H6Cl6

$$$$
iss2_450


 12 12  0  0  0  0  0  0  0  0999 V2000
    2.3045   -3.9885    0.0000 C   0  0  0  0  0  0  0  0  0  0  0  0
    1.1522   -3.3174    0.0000 C   0  0  0  0  0  0  0  0  0  0  0  0
    3.4567   -3.3174    0.0000 C   0  0  0  0  0  0  0  0  0  0  0  0
    2.3045   -5.3180    0.0000 Cl  0  0  0  0  0  0  0  0  0  0  0  0
    1.1522   -1.9879    0.0000 C   0  0  0  0  0  0  0  0  0  0  0  0
    0.0000   -3.9885    0.0000 Cl  0  0  0  0  0  0  0  0  0  0  0  0
    3.4567   -1.9879    0.0000 C   0  0  0  0  0  0  0  0  0  0  0  0
    4.6089   -3.9885    0.0000 Cl  0  0  0  0  0  0  0  0  0  0  0  0
    2.3045   -1.3295    0.0000 C   0  0  0  0  0  0  0  0  0  0  0  0
    0.0000   -1.3295    0.0000 Cl  0  0  0  0  0  0  0  0  0  0  0  0
    4.6089   -1.3295    0.0000 Cl  0  0  0  0  0  0  0  0  0  0  0  0
    2.3045   -0.0000    0.0000 Cl  0  0  0  0  0  0  0  0  0  0  0  0
  1  2  1  0  0  0  0
  1  3  1  0  0  0  0
  1  4  1  0  0  0  0
  2  5  1  0  0  0  0
  2  6  1  0  0  0  0
  3  7  1  0  0  0  0
  3  8  1  0  0  0  0
  5  9  1  0  0  0  0
  5 10  1  0  0  0  0
  7 11  1  0  0  0  0
  7  9  1  0  0  0  0
  9 12  1  0  0  0  0
M  END
>  <Substance ID> (iss2_450)
iss2_450

>  <Molecular.Weight> (iss2_450)
290.8

>  <FW_iss2> (iss2_450)
290.8

>  <Parent.Atom.Count> (iss2_450)
12.0

>  <Parent.Molecular.Weight> (iss2_450)
290.8

>  <Rotatable.Bonds> (iss2_450)
0.0

>  <Hydrogen.Bond.Acceptors> (iss2_450)
0.0

>  <Polar.Surface.Area> (iss2_450)
0.0

>  <Lipinski.Score> (iss2_450)
0.0

>  <Canc_iss2> (iss2_450)
3.0

>  <ALogP> (iss2_450)
3.64

>  <Hydrogen.Bond.Donors> (iss2_450)
0.0

>  <ChemName_iss2> (iss2_450)
Hexachlorocyclohexane

>  <SMILES_iss2> (iss2_450)
ClC1C(C(C(Cl)C(C1Cl)Cl)Cl)Cl

>  <SAL_iss2> (iss2_450)
ND

>  <CAS_iss2> (iss2_450)
608-73-1

>  <Formula_iss2> (iss2_450)
C6H6Cl6

$$$$
iss2_480


 12 12  0  0  1  0  0  0  0  0999 V2000
    3.3638   -5.4425    0.0000 C   0  0  0  0  0  0  0  0  0  0  0  0
    3.3811   -6.8919    0.0000 C   0  0  0  0  0  0  0  0  0  0  0  0
    5.8957   -6.8590    0.0000 C   0  0  0  0  0  0  0  0  0  0  0  0
    4.6494   -7.6041    0.0000 C   0  0  0  0  0  0  0  0  0  0  0  0
    4.6089   -4.6976    0.0000 C   0  0  0  0  0  0  0  0  0  0  0  0
    4.5894   -3.0341    0.0000 Cl  0  0  0  0  0  0  0  0  0  0  0  0
    7.3511   -7.6750    0.0000 Cl  0  0  0  0  0  0  0  0  0  0  0  0
    1.9508   -7.7467    0.0000 Cl  0  0  0  0  0  0  0  0  0  0  0  0
    7.3073   -4.5550    0.0000 Cl  0  0  0  0  0  0  0  0  0  0  0  0
    4.6692   -9.2668    0.0000 Cl  0  0  0  0  0  0  0  0  0  0  0  0
    1.9077   -4.6265    0.0000 Cl  0  0  0  0  0  0  0  0  0  0  0  0
    5.8786   -5.4096    0.0000 C   0  0  0  0  0  0  0  0  0  0  0  0
  1  5  1  0  0  0  0
  1 11  1  6  0  0  0
  1  2  1  0  0  0  0
  2  4  1  0  0  0  0
  2  8  1  1  0  0  0
  3 12  1  0  0  0  0
  3  7  1  1  0  0  0
  3  4  1  0  0  0  0
  4 10  1  6  0  0  0
  5  6  1  1  0  0  0
  5 12  1  0  0  0  0
 12  9  1  6  0  0  0
M  END
>  <Substance ID> (iss2_480)
iss2_480

>  <Molecular.Weight> (iss2_480)
290.8

>  <FW_iss2> (iss2_480)
290.8

>  <Parent.Atom.Count> (iss2_480)
12.0

>  <Parent.Molecular.Weight> (iss2_480)
290.8

>  <Rotatable.Bonds> (iss2_480)
0.0

>  <Hydrogen.Bond.Acceptors> (iss2_480)
0.0

>  <Polar.Surface.Area> (iss2_480)
0.0

>  <Lipinski.Score> (iss2_480)
0.0

>  <Canc_iss2> (iss2_480)
3.0

>  <ALogP> (iss2_480)
3.64

>  <Hydrogen.Bond.Donors> (iss2_480)
0.0

>  <ChemName_iss2> (iss2_480)
beta-1,2,3,4,5,6-Hexachlorocyclohexane

>  <SMILES_iss2> (iss2_480)
Cl[C@@H]1[C@@H](Cl)[C@H](Cl)[C@@H](Cl)[C@H](Cl)[C@H]1Cl

>  <SAL_iss2> (iss2_480)
1

>  <CAS_iss2> (iss2_480)
319-85-7

>  <Formula_iss2> (iss2_480)
C6H6Cl6

$$$$
